
=================
  PFLOTRAN v3.0
=================

 Extent of Gridded Domain
  X: 6.8700999999999999 - 1591.8000000000000
  Y: 7.8494999999999999 - 2988.9000000000001
  Z: -1477.5000000000000 - -43.250000000000000


=+=+=+=+=+=+=+=+=+=+=+=+=+=+=+=+=+=+=+=+=+=+=+=+=+=+=+=+=+=+=+=+=+=+=+=+=+=+=+=+

  Initial Condition

--------------------------------------------------------------------------------
          Flow Condition:   initial
     Transport Condition:   initial_rock
                  Region:   top_rock
--------------------------------------------------------------------------------

  Flow Condition: initial
    Synchronize time with update: no
    Time units: yr
    Length units: m
      Datum:
        Dataset: Unnamed Ascii Dataset
          Type: dataset_ascii_type
          Transient: no
          Array Rank:  3

    Sub Condition: pressure
      Type: hydrostatic
      Gradient:
      Data:
        Dataset: Unnamed Ascii Dataset
          Type: dataset_ascii_type
          Transient: no
          Array Rank:  1

--------------------------------------------------------------------------------

  Transport Condition: initial_rock

  Constraint: initial_rock

  species       molality
  Cl-           1.0040E-10
  Tracer1       1.0040E-10
  Tracer2       1.0040E-10


--------------------------------------------------------------------------------

=+=+=+=+=+=+=+=+=+=+=+=+=+=+=+=+=+=+=+=+=+=+=+=+=+=+=+=+=+=+=+=+=+=+=+=+=+=+=+=+

  Initial Condition

--------------------------------------------------------------------------------
          Flow Condition:   initial
     Transport Condition:   initial_rock
                  Region:   mid_rock
--------------------------------------------------------------------------------

  Flow Condition: initial
    Synchronize time with update: no
    Time units: yr
    Length units: m
      Datum:
        Dataset: Unnamed Ascii Dataset
          Type: dataset_ascii_type
          Transient: no
          Array Rank:  3

    Sub Condition: pressure
      Type: hydrostatic
      Gradient:
      Data:
        Dataset: Unnamed Ascii Dataset
          Type: dataset_ascii_type
          Transient: no
          Array Rank:  1

--------------------------------------------------------------------------------

  Transport Condition: initial_rock

  Constraint: initial_rock

  species       molality
  Cl-           1.0040E-10
  Tracer1       1.0040E-10
  Tracer2       1.0040E-10


--------------------------------------------------------------------------------

=+=+=+=+=+=+=+=+=+=+=+=+=+=+=+=+=+=+=+=+=+=+=+=+=+=+=+=+=+=+=+=+=+=+=+=+=+=+=+=+

  Initial Condition

--------------------------------------------------------------------------------
          Flow Condition:   initial
     Transport Condition:   initial_rock
                  Region:   bottom_rock
--------------------------------------------------------------------------------

  Flow Condition: initial
    Synchronize time with update: no
    Time units: yr
    Length units: m
      Datum:
        Dataset: Unnamed Ascii Dataset
          Type: dataset_ascii_type
          Transient: no
          Array Rank:  3

    Sub Condition: pressure
      Type: hydrostatic
      Gradient:
      Data:
        Dataset: Unnamed Ascii Dataset
          Type: dataset_ascii_type
          Transient: no
          Array Rank:  1

--------------------------------------------------------------------------------

  Transport Condition: initial_rock

  Constraint: initial_rock

  species       molality
  Cl-           1.0040E-10
  Tracer1       1.0040E-10
  Tracer2       1.0040E-10


--------------------------------------------------------------------------------

=+=+=+=+=+=+=+=+=+=+=+=+=+=+=+=+=+=+=+=+=+=+=+=+=+=+=+=+=+=+=+=+=+=+=+=+=+=+=+=+

  Initial Condition

--------------------------------------------------------------------------------
          Flow Condition:   initial
     Transport Condition:   initial_repo
                  Region:   repositories
--------------------------------------------------------------------------------

  Flow Condition: initial
    Synchronize time with update: no
    Time units: yr
    Length units: m
      Datum:
        Dataset: Unnamed Ascii Dataset
          Type: dataset_ascii_type
          Transient: no
          Array Rank:  3

    Sub Condition: pressure
      Type: hydrostatic
      Gradient:
      Data:
        Dataset: Unnamed Ascii Dataset
          Type: dataset_ascii_type
          Transient: no
          Array Rank:  1

--------------------------------------------------------------------------------

  Transport Condition: initial_repo

  Constraint: initial_repo

  species       molality
  Cl-           1.0040E-10
  Tracer1       1.0040E-10
  Tracer2       1.0040E+00


--------------------------------------------------------------------------------

=+=+=+=+=+=+=+=+=+=+=+=+=+=+=+=+=+=+=+=+=+=+=+=+=+=+=+=+=+=+=+=+=+=+=+=+=+=+=+=+

  Boundary Condition

--------------------------------------------------------------------------------
          Flow Condition:   top
     Transport Condition:   top
                  Region:   top
--------------------------------------------------------------------------------

  Flow Condition: top
    Synchronize time with update: no
    Time units: yr
    Length units: m
      Datum:

    Sub Condition: pressure
      Type: neumann
      Gradient:
      Data:
        Dataset: top_BC_condition
          Type: dataset_gridded_hdf5_type
          Filename: ././input_files/top_BC_velocities.h5
          Is transient?: yes
          Number of times:     26
          Is cyclic?: no
          Buffer:
            Rank:  2
            Dims:  400 750
            Buffer Slice Size:  10
          HDF5 Dataset Name: region
          Realization Dependent: no
          Cell Indexed: no
          Maximum Buffer Size:  10
          Grid Dimension: XY
          Is cell-centered?: no
          Origin:  -7.9800E+01 -1.4980E+02
          Discretization:   4.8279E+00  4.8335E+00

--------------------------------------------------------------------------------

  Transport Condition: top

  Constraint: top_condition

  species       molality
  Cl-          -7.8329E-23
  Tracer1      -2.6110E-22
  Tracer2      -2.6110E-32


--------------------------------------------------------------------------------

=+=+=+=+=+=+=+=+=+=+=+=+=+=+=+=+=+=+=+=+=+=+=+=+=+=+=+=+=+=+=+=+=+=+=+=+=+=+=+=+

  Boundary Condition

--------------------------------------------------------------------------------
          Flow Condition:   west_top
     Transport Condition:   west_top
                  Region:   south_top
--------------------------------------------------------------------------------

  Flow Condition: west_top
    Synchronize time with update: no
    Time units: yr
    Length units: m
      Datum:
        Dataset: Unnamed Ascii Dataset
          Type: dataset_ascii_type
          Transient: no
          Array Rank:  3

    Sub Condition: pressure
      Type: hydrostatic
      Gradient:
      Data:
        Dataset: Unnamed Ascii Dataset
          Type: dataset_ascii_type
          Transient: no
          Array Rank:  1

--------------------------------------------------------------------------------

  Transport Condition: west_top

  Constraint: initial_rock

  species       molality
  Cl-           1.0040E-10
  Tracer1       1.0040E-10
  Tracer2       1.0040E-10


--------------------------------------------------------------------------------

=+=+=+=+=+=+=+=+=+=+=+=+=+=+=+=+=+=+=+=+=+=+=+=+=+=+=+=+=+=+=+=+=+=+=+=+=+=+=+=+

  Boundary Condition

--------------------------------------------------------------------------------
          Flow Condition:   east_top
     Transport Condition:   east_top
                  Region:   north_top
--------------------------------------------------------------------------------

  Flow Condition: east_top
    Synchronize time with update: no
    Time units: yr
    Length units: m
      Datum:
        Dataset: Unnamed Ascii Dataset
          Type: dataset_ascii_type
          Transient: no
          Array Rank:  3

    Sub Condition: pressure
      Type: hydrostatic
      Gradient:
      Data:
        Dataset: Unnamed Ascii Dataset
          Type: dataset_ascii_type
          Transient: no
          Array Rank:  1

--------------------------------------------------------------------------------

  Transport Condition: east_top

  Constraint: initial_rock

  species       molality
  Cl-           1.0047E-10
  Tracer1       1.0047E-10
  Tracer2       1.0047E-10


--------------------------------------------------------------------------------

=+=+=+=+=+=+=+=+=+=+=+=+=+=+=+=+=+=+=+=+=+=+=+=+=+=+=+=+=+=+=+=+=+=+=+=+=+=+=+=+

  Boundary Condition

--------------------------------------------------------------------------------
          Flow Condition:   west_top
     Transport Condition:   west_top
                  Region:   south_middle
--------------------------------------------------------------------------------

  Flow Condition: west_top
    Synchronize time with update: no
    Time units: yr
    Length units: m
      Datum:
        Dataset: Unnamed Ascii Dataset
          Type: dataset_ascii_type
          Transient: no
          Array Rank:  3

    Sub Condition: pressure
      Type: hydrostatic
      Gradient:
      Data:
        Dataset: Unnamed Ascii Dataset
          Type: dataset_ascii_type
          Transient: no
          Array Rank:  1

--------------------------------------------------------------------------------

  Transport Condition: west_top

  Constraint: initial_rock

  species       molality
  Cl-           1.0040E-10
  Tracer1       1.0040E-10
  Tracer2       1.0040E-10


--------------------------------------------------------------------------------

=+=+=+=+=+=+=+=+=+=+=+=+=+=+=+=+=+=+=+=+=+=+=+=+=+=+=+=+=+=+=+=+=+=+=+=+=+=+=+=+

  Boundary Condition

--------------------------------------------------------------------------------
          Flow Condition:   east_top
     Transport Condition:   east_top
                  Region:   north_middle
--------------------------------------------------------------------------------

  Flow Condition: east_top
    Synchronize time with update: no
    Time units: yr
    Length units: m
      Datum:
        Dataset: Unnamed Ascii Dataset
          Type: dataset_ascii_type
          Transient: no
          Array Rank:  3

    Sub Condition: pressure
      Type: hydrostatic
      Gradient:
      Data:
        Dataset: Unnamed Ascii Dataset
          Type: dataset_ascii_type
          Transient: no
          Array Rank:  1

--------------------------------------------------------------------------------

  Transport Condition: east_top

  Constraint: initial_rock

  species       molality
  Cl-           1.0047E-10
  Tracer1       1.0047E-10
  Tracer2       1.0047E-10


--------------------------------------------------------------------------------

=+=+=+=+=+=+=+=+=+=+=+=+=+=+=+=+=+=+=+=+=+=+=+=+=+=+=+=+=+=+=+=+=+=+=+=+=+=+=+=+

  Boundary Condition

--------------------------------------------------------------------------------
          Flow Condition:   west_top
     Transport Condition:   west_top
                  Region:   south_bottom
--------------------------------------------------------------------------------

  Flow Condition: west_top
    Synchronize time with update: no
    Time units: yr
    Length units: m
      Datum:
        Dataset: Unnamed Ascii Dataset
          Type: dataset_ascii_type
          Transient: no
          Array Rank:  3

    Sub Condition: pressure
      Type: hydrostatic
      Gradient:
      Data:
        Dataset: Unnamed Ascii Dataset
          Type: dataset_ascii_type
          Transient: no
          Array Rank:  1

--------------------------------------------------------------------------------

  Transport Condition: west_top

  Constraint: initial_rock

  species       molality
  Cl-           1.0040E-10
  Tracer1       1.0040E-10
  Tracer2       1.0040E-10


--------------------------------------------------------------------------------

=+=+=+=+=+=+=+=+=+=+=+=+=+=+=+=+=+=+=+=+=+=+=+=+=+=+=+=+=+=+=+=+=+=+=+=+=+=+=+=+

  Boundary Condition

--------------------------------------------------------------------------------
          Flow Condition:   east_top
     Transport Condition:   east_top
                  Region:   north_bottom
--------------------------------------------------------------------------------

  Flow Condition: east_top
    Synchronize time with update: no
    Time units: yr
    Length units: m
      Datum:
        Dataset: Unnamed Ascii Dataset
          Type: dataset_ascii_type
          Transient: no
          Array Rank:  3

    Sub Condition: pressure
      Type: hydrostatic
      Gradient:
      Data:
        Dataset: Unnamed Ascii Dataset
          Type: dataset_ascii_type
          Transient: no
          Array Rank:  1

--------------------------------------------------------------------------------

  Transport Condition: east_top

  Constraint: initial_rock

  species       molality
  Cl-           1.0047E-10
  Tracer1       1.0047E-10
  Tracer2       1.0047E-10


--------------------------------------------------------------------------------

 Requested processors =    64

FLOW Time Stepper
                 acceleration: on
       acceleration threshold: 5
       number of ramp entries: 5
                ramp entry #1: 2.0000
                ramp entry #2: 2.0000
                ramp entry #3: 2.0000
                ramp entry #4: 2.0000
                ramp entry #5: 2.0000
                ramp entry #6: 1.8000
                ramp entry #7: 1.6000
                ramp entry #8: 1.4000
                ramp entry #9: 1.2000
               ramp entry #10: 1.0000
               ramp entry #11: 1.0000
               ramp entry #12: 1.0000
               ramp entry #13: 1.0000
      maximum number of steps: 999999
constant time steps threshold: 5
       maximum number of cuts: 16
             reduction factor: 5.000000E-01
        maximum growth factor: 2.000000E+00

FLOW Newton Solver
                         atol: 1.000000E-06
                         rtol: 1.000000E-04
                         stol: 1.000000E-10
                         dtol: 1.000000E+04
                      maxnorm: 1.000000E+20
                    inftolres: -9.990000E+02
                    inftolupd: 1.000000E+00
                 inftolrelupd: -9.990000E+02
                 inftolsclres: -9.990000E+02
                     max iter: 50
                     min iter: 1
                         maxf: 10000
                  matrix type: baij
         precond. matrix type: baij
               inexact newton: off
            print convergence: on
   print detailed convergence: off
          check infinity norm: on

FLOW Linear Solver
                       solver: bcgs
               preconditioner: bjacobi
                         atol: 1.000000E-50
                         rtol: 1.000000E-05
                         dtol: 1.000000E+04
            maximum iteration: 10000

TRAN Time Stepper
                 acceleration: on
       acceleration threshold: 5
       number of ramp entries: 5
                ramp entry #1: 2.0000
                ramp entry #2: 2.0000
                ramp entry #3: 2.0000
                ramp entry #4: 2.0000
                ramp entry #5: 2.0000
                ramp entry #6: 1.8000
                ramp entry #7: 1.6000
                ramp entry #8: 1.4000
                ramp entry #9: 1.2000
               ramp entry #10: 1.0000
               ramp entry #11: 1.0000
               ramp entry #12: 1.0000
               ramp entry #13: 1.0000
      maximum number of steps: 999999
constant time steps threshold: 5
       maximum number of cuts: 16
             reduction factor: 5.000000E-01
        maximum growth factor: 2.000000E+00

TRAN Newton Solver
                         atol: 1.000000E-50
                         rtol: 1.000000E-08
                         stol: 1.000000E-08
                         dtol: 1.000000E+04
                      maxnorm: 1.000000E+20
                    inftolres: -9.990000E+02
                    inftolupd: -9.990000E+02
                 inftolrelupd: -9.990000E+02
                 inftolsclres: -9.990000E+02
                     max iter: 50
                     min iter: 1
                         maxf: 10000
                  matrix type: baij
         precond. matrix type: baij
               inexact newton: off
            print convergence: on
   print detailed convergence: off
          check infinity norm: on

TRAN Linear Solver
                       solver: bcgs
               preconditioner: bjacobi
                         atol: 1.000000E-50
                         rtol: 1.000000E-05
                         dtol: 1.000000E+04
            maximum iteration: 10000

== RICHARDS FLOW ===============================================================
  0 2r: 2.23E+01 2x: 0.00E+00 2u: 0.00E+00 ir: 3.38E+00 iu: 0.00E+00 rsn:   0
  1 2r: 4.64E-06 2x: 3.43E+09 2u: 1.83E+03 ir: 9.15E-07 iu: 4.51E+02 rsn: rtol
 Step      1 Time=  3.17098E-11 Dt=  3.17098E-11 [y] snes_conv_reason:    3
  newton =   1 [       1] linear =     1 [         1] cuts =  0 [   0]
  --> max chng: dpmx=   4.5082E+02

== REACTIVE TRANSPORT ==========================================================
  0 2r: 2.69E+00 2x: 0.00E+00 2u: 0.00E+00 ir: 7.78E-01 iu: 0.00E+00 rsn:   0
  1 2r: 1.77E+00 2x: 1.23E+04 2u: 1.14E+02 ir: 2.01E-01 iu: 5.00E+00 rsn:   0
  2 2r: 6.12E-01 2x: 1.23E+04 2u: 2.14E+01 ir: 7.16E-02 iu: 9.59E-01 rsn:   0
  3 2r: 1.94E-01 2x: 1.23E+04 2u: 1.71E+01 ir: 2.43E-02 iu: 8.94E-01 rsn:   0
  4 2r: 4.91E-02 2x: 1.23E+04 2u: 1.12E+01 ir: 7.12E-03 iu: 7.41E-01 rsn:   0
  5 2r: 7.62E-03 2x: 1.23E+04 2u: 4.98E+00 ir: 1.40E-03 iu: 4.56E-01 rsn:   0
  6 2r: 3.90E-04 2x: 1.23E+04 2u: 1.07E+00 ir: 9.47E-05 iu: 1.42E-01 rsn:   0
  7 2r: 1.21E-05 2x: 1.23E+04 2u: 5.87E-02 ir: 5.20E-07 iu: 1.11E-02 rsn:   0
  8 2r: 1.20E-05 2x: 1.23E+04 2u: 2.37E-04 ir: 4.77E-07 iu: 6.16E-05 rsn:   0
  9 2r: 1.20E-05 2x: 1.23E+04 2u: 5.28E-09 ir: 4.77E-07 iu: 1.90E-09 rsn: stol
 Step      1 Time=  3.17098E-11 Dt=  3.17098E-11 [y] snes_conv_reason:    4
  newton =   9 [       9] linear =     9 [         9] cuts =  0 [   0]
  --> max chng: dcmx=   8.0948E-09  dc/dt=   8.0948E-06 [mol/s]

== AUXILIARY SALINITY ==========================================================

== RICHARDS FLOW ===============================================================
  0 2r: 2.22E+01 2x: 0.00E+00 2u: 0.00E+00 ir: 3.38E+00 iu: 0.00E+00 rsn:   0
  1 2r: 8.70E-06 2x: 3.43E+09 2u: 3.63E+03 ir: 2.72E-06 iu: 8.99E+02 rsn: rtol
 Step      2 Time=  9.51294E-11 Dt=  6.34196E-11 [y] snes_conv_reason:    3
  newton =   1 [       2] linear =     1 [         2] cuts =  0 [   0]
  --> max chng: dpmx=   8.9941E+02

== REACTIVE TRANSPORT ==========================================================
  0 2r: 2.36E+00 2x: 0.00E+00 2u: 0.00E+00 ir: 6.88E-01 iu: 0.00E+00 rsn:   0
  1 2r: 4.76E-02 2x: 1.23E+04 2u: 1.21E+01 ir: 3.60E-03 iu: 5.08E-01 rsn:   0
  2 2r: 1.70E-03 2x: 1.23E+04 2u: 1.85E+00 ir: 1.50E-04 iu: 9.25E-02 rsn:   0
  3 2r: 2.42E-05 2x: 1.23E+04 2u: 7.24E-02 ir: 7.15E-07 iu: 4.55E-03 rsn:   0
  4 2r: 2.39E-05 2x: 1.23E+04 2u: 1.21E-04 ir: 7.15E-07 iu: 1.04E-05 rsn: stol
 Step      2 Time=  4.75647E-11 Dt=  1.58549E-11 [y] snes_conv_reason:    4
  newton =   4 [      13] linear =     4 [        13] cuts =  0 [   0]
  --> max chng: dcmx=   3.9142E-09  dc/dt=   7.8283E-06 [mol/s]

== REACTIVE TRANSPORT ==========================================================
  0 2r: 2.36E+00 2x: 0.00E+00 2u: 0.00E+00 ir: 6.88E-01 iu: 0.00E+00 rsn:   0
  1 2r: 7.15E-02 2x: 1.23E+04 2u: 1.77E+01 ir: 5.18E-03 iu: 6.73E-01 rsn:   0
  2 2r: 4.11E-03 2x: 1.23E+04 2u: 3.30E+00 ir: 3.42E-04 iu: 1.47E-01 rsn:   0
  3 2r: 2.39E-05 2x: 1.23E+04 2u: 2.16E-01 ir: 1.85E-06 iu: 1.19E-02 rsn:   0
  4 2r: 1.34E-05 2x: 1.23E+04 2u: 1.02E-03 ir: 4.77E-07 iu: 7.08E-05 rsn:   0
  5 2r: 1.36E-05 2x: 1.23E+04 2u: 2.48E-08 ir: 4.77E-07 iu: 2.51E-09 rsn: stol
 Step      3 Time=  7.92745E-11 Dt=  3.17098E-11 [y] snes_conv_reason:    4
  newton =   5 [      18] linear =     5 [        18] cuts =  0 [   0]
  --> max chng: dcmx=   7.8283E-09  dc/dt=   7.8283E-06 [mol/s]

== REACTIVE TRANSPORT ==========================================================
  0 2r: 2.36E+00 2x: 0.00E+00 2u: 0.00E+00 ir: 6.88E-01 iu: 0.00E+00 rsn:   0
  1 2r: 2.01E-02 2x: 1.23E+04 2u: 5.88E+00 ir: 1.34E-03 iu: 2.01E-01 rsn:   0
  2 2r: 1.47E-04 2x: 1.23E+04 2u: 4.33E-01 ir: 1.13E-05 iu: 1.77E-02 rsn:   0
  3 2r: 3.18E-05 2x: 1.23E+04 2u: 3.21E-03 ir: 9.54E-07 iu: 1.59E-04 rsn:   0
  4 2r: 3.16E-05 2x: 1.23E+04 2u: 2.08E-07 ir: 9.54E-07 iu: 1.26E-08 rsn: stol
 Step      4 Time=  9.51294E-11 Dt=  1.58549E-11 [y] snes_conv_reason:    4
  newton =   4 [      22] linear =     4 [        22] cuts =  0 [   0]
  --> max chng: dcmx=   3.9142E-09  dc/dt=   7.8283E-06 [mol/s]

== AUXILIARY SALINITY ==========================================================

== RICHARDS FLOW ===============================================================
  0 2r: 2.22E+01 2x: 0.00E+00 2u: 0.00E+00 ir: 3.38E+00 iu: 0.00E+00 rsn:   0
  1 2r: 1.71E-05 2x: 3.43E+09 2u: 7.22E+03 ir: 3.66E-06 iu: 1.80E+03 rsn: rtol
 Step      3 Time=  2.21969E-10 Dt=  1.26839E-10 [y] snes_conv_reason:    3
  newton =   1 [       3] linear =     2 [         4] cuts =  0 [   0]
  --> max chng: dpmx=   1.7951E+03

== REACTIVE TRANSPORT ==========================================================
  0 2r: 2.36E+00 2x: 0.00E+00 2u: 0.00E+00 ir: 6.91E-01 iu: 0.00E+00 rsn:   0
  1 2r: 7.84E-02 2x: 1.23E+04 2u: 2.07E+01 ir: 5.19E-03 iu: 2.92E+00 rsn:   0
  2 2r: 4.66E-03 2x: 1.23E+04 2u: 3.95E+00 ir: 1.00E-03 iu: 7.88E-01 rsn:   0
  3 2r: 2.26E-04 2x: 1.23E+04 2u: 5.91E-01 ir: 2.25E-04 iu: 5.34E-01 rsn:   0
  4 2r: 2.24E-05 2x: 1.23E+04 2u: 2.05E-01 ir: 2.16E-05 iu: 2.05E-01 rsn:   0
  5 2r: 6.03E-06 2x: 1.23E+04 2u: 2.42E-02 ir: 2.59E-07 iu: 2.42E-02 rsn:   0
  6 2r: 6.09E-06 2x: 1.23E+04 2u: 2.97E-04 ir: 2.38E-07 iu: 2.97E-04 rsn:   0
  7 2r: 6.01E-06 2x: 1.23E+04 2u: 4.42E-08 ir: 2.38E-07 iu: 4.42E-08 rsn: stol
 Step      5 Time=  1.58549E-10 Dt=  6.34196E-11 [y] snes_conv_reason:    4
  newton =   7 [      29] linear =     7 [        29] cuts =  0 [   0]
  --> max chng: dcmx=   1.4726E-08  dc/dt=   7.3632E-06 [mol/s]

== REACTIVE TRANSPORT ==========================================================
  0 2r: 2.36E+00 2x: 0.00E+00 2u: 0.00E+00 ir: 6.91E-01 iu: 0.00E+00 rsn:   0
  1 2r: 2.16E-02 2x: 1.23E+04 2u: 6.74E+00 ir: 1.34E-03 iu: 3.72E-01 rsn:   0
  2 2r: 1.60E-04 2x: 1.23E+04 2u: 5.11E-01 ir: 1.14E-05 iu: 5.43E-02 rsn:   0
  3 2r: 1.13E-05 2x: 1.23E+04 2u: 4.06E-03 ir: 4.77E-07 iu: 1.53E-03 rsn:   0
  4 2r: 1.12E-05 2x: 1.23E+04 2u: 1.20E-06 ir: 4.77E-07 iu: 1.17E-06 rsn: stol
 Step      6 Time=  1.90259E-10 Dt=  3.17098E-11 [y] snes_conv_reason:    4
  newton =   4 [      33] linear =     4 [        33] cuts =  0 [   0]
  --> max chng: dcmx=   7.3632E-09  dc/dt=   7.3632E-06 [mol/s]

== REACTIVE TRANSPORT ==========================================================
  0 2r: 2.36E+00 2x: 0.00E+00 2u: 0.00E+00 ir: 6.91E-01 iu: 0.00E+00 rsn:   0
  1 2r: 1.82E-02 2x: 1.23E+04 2u: 5.79E+00 ir: 1.14E-03 iu: 2.71E-01 rsn:   0
  2 2r: 9.72E-05 2x: 1.23E+04 2u: 3.75E-01 ir: 6.70E-06 iu: 3.08E-02 rsn:   0
  3 2r: 1.22E-05 2x: 1.23E+04 2u: 2.02E-03 ir: 4.77E-07 iu: 4.84E-04 rsn:   0
  4 2r: 1.21E-05 2x: 1.23E+04 2u: 1.34E-07 ir: 4.77E-07 iu: 1.17E-07 rsn: stol
 Step      7 Time=  2.21969E-10 Dt=  3.17098E-11 [y] snes_conv_reason:    4
  newton =   4 [      37] linear =     4 [        37] cuts =  0 [   0]
  --> max chng: dcmx=   7.3632E-09  dc/dt=   7.3632E-06 [mol/s]

== AUXILIARY SALINITY ==========================================================

== RICHARDS FLOW ===============================================================
  0 2r: 2.22E+01 2x: 0.00E+00 2u: 0.00E+00 ir: 3.38E+00 iu: 0.00E+00 rsn:   0
  1 2r: 3.40E-05 2x: 3.43E+09 2u: 1.43E+04 ir: 6.68E-06 iu: 3.57E+03 rsn: rtol
 Step      4 Time=  4.75647E-10 Dt=  2.53678E-10 [y] snes_conv_reason:    3
  newton =   1 [       4] linear =     2 [         6] cuts =  0 [   0]
  --> max chng: dpmx=   3.5749E+03

== REACTIVE TRANSPORT ==========================================================
  0 2r: 2.36E+00 2x: 0.00E+00 2u: 0.00E+00 ir: 6.91E-01 iu: 0.00E+00 rsn:   0
  1 2r: 3.22E-02 2x: 1.23E+04 2u: 1.06E+01 ir: 2.12E-03 iu: 9.64E-01 rsn:   0
  2 2r: 4.81E-04 2x: 1.23E+04 2u: 1.22E+00 ir: 1.16E-04 iu: 2.51E-01 rsn:   0
  3 2r: 6.35E-06 2x: 1.23E+04 2u: 4.71E-02 ir: 2.13E-06 iu: 3.73E-02 rsn:   0
  4 2r: 5.91E-06 2x: 1.23E+04 2u: 7.14E-04 ir: 2.38E-07 iu: 7.12E-04 rsn:   0
  5 2r: 5.94E-06 2x: 1.23E+04 2u: 2.54E-07 ir: 2.38E-07 iu: 2.54E-07 rsn: stol
 Step      8 Time=  2.85388E-10 Dt=  6.34196E-11 [y] snes_conv_reason:    4
  newton =   5 [      42] linear =     5 [        42] cuts =  0 [   0]
  --> max chng: dcmx=   1.3284E-08  dc/dt=   6.6421E-06 [mol/s]

== REACTIVE TRANSPORT ==========================================================
  0 2r: 2.36E+00 2x: 0.00E+00 2u: 0.00E+00 ir: 6.91E-01 iu: 0.00E+00 rsn:   0
  1 2r: 5.39E-02 2x: 1.23E+04 2u: 1.68E+01 ir: 3.58E-03 iu: 9.82E-01 rsn:   0
  2 2r: 1.73E-03 2x: 1.23E+04 2u: 2.61E+00 ir: 1.21E-04 iu: 2.57E-01 rsn:   0
  3 2r: 4.33E-06 2x: 1.23E+04 2u: 1.13E-01 ir: 2.36E-06 iu: 3.94E-02 rsn:   0
  4 2r: 2.91E-06 2x: 1.23E+04 2u: 8.79E-04 ir: 1.19E-07 iu: 7.97E-04 rsn:   0
  5 2r: 2.92E-06 2x: 1.23E+04 2u: 3.18E-07 ir: 1.19E-07 iu: 3.18E-07 rsn: stol
 Step      9 Time=  4.12227E-10 Dt=  1.26839E-10 [y] snes_conv_reason:    4
  newton =   5 [      47] linear =     5 [        47] cuts =  0 [   0]
  --> max chng: dcmx=   2.6568E-08  dc/dt=   6.6421E-06 [mol/s]

== REACTIVE TRANSPORT ==========================================================
  0 2r: 2.36E+00 2x: 0.00E+00 2u: 0.00E+00 ir: 6.91E-01 iu: 0.00E+00 rsn:   0
  1 2r: 1.74E-02 2x: 1.23E+04 2u: 6.05E+00 ir: 1.17E-03 iu: 2.48E-01 rsn:   0
  2 2r: 8.41E-05 2x: 1.23E+04 2u: 3.85E-01 ir: 5.41E-06 iu: 2.60E-02 rsn:   0
  3 2r: 6.06E-06 2x: 1.23E+04 2u: 2.01E-03 ir: 2.38E-07 iu: 3.45E-04 rsn:   0
  4 2r: 6.03E-06 2x: 1.23E+04 2u: 1.01E-07 ir: 2.38E-07 iu: 5.96E-08 rsn: stol
 Step     10 Time=  4.75647E-10 Dt=  6.34196E-11 [y] snes_conv_reason:    4
  newton =   4 [      51] linear =     4 [        51] cuts =  0 [   0]
  --> max chng: dcmx=   1.3284E-08  dc/dt=   6.6421E-06 [mol/s]

== AUXILIARY SALINITY ==========================================================

== RICHARDS FLOW ===============================================================
  0 2r: 2.22E+01 2x: 0.00E+00 2u: 0.00E+00 ir: 3.37E+00 iu: 0.00E+00 rsn:   0
  1 2r: 6.92E-05 2x: 3.43E+09 2u: 2.83E+04 ir: 1.43E-05 iu: 7.09E+03 rsn: rtol
 Step      5 Time=  9.83004E-10 Dt=  5.07357E-10 [y] snes_conv_reason:    3
  newton =   1 [       5] linear =     2 [         8] cuts =  0 [   0]
  --> max chng: dpmx=   7.0896E+03

== REACTIVE TRANSPORT ==========================================================
  0 2r: 2.36E+00 2x: 0.00E+00 2u: 0.00E+00 ir: 6.89E-01 iu: 0.00E+00 rsn:   0
  1 2r: 7.29E-02 2x: 1.23E+04 2u: 2.39E+01 ir: 2.68E-02 iu: 5.00E+00 rsn:   0
  2 2r: 9.90E-03 2x: 1.23E+04 2u: 4.79E+00 ir: 9.38E-03 iu: 9.32E-01 rsn:   0
  3 2r: 3.00E-03 2x: 1.23E+04 2u: 1.24E+00 ir: 2.99E-03 iu: 8.26E-01 rsn:   0
  4 2r: 7.46E-04 2x: 1.23E+04 2u: 6.31E-01 ir: 7.46E-04 iu: 6.03E-01 rsn:   0
  5 2r: 9.36E-05 2x: 1.23E+04 2u: 2.75E-01 ir: 9.36E-05 iu: 2.75E-01 rsn:   0
  6 2r: 2.66E-06 2x: 1.23E+04 2u: 4.53E-02 ir: 2.09E-06 iu: 4.53E-02 rsn:   0
  7 2r: 1.63E-06 2x: 1.23E+04 2u: 1.06E-03 ir: 5.96E-08 iu: 1.06E-03 rsn:   0
  8 2r: 1.64E-06 2x: 1.23E+04 2u: 5.62E-07 ir: 5.96E-08 iu: 5.62E-07 rsn: stol
 Step     11 Time=  7.29325E-10 Dt=  2.53678E-10 [y] snes_conv_reason:    4
  newton =   8 [      59] linear =     8 [        59] cuts =  0 [   0]
  --> max chng: dcmx=   4.5806E-08  dc/dt=   5.7257E-06 [mol/s]

== REACTIVE TRANSPORT ==========================================================
  0 2r: 2.36E+00 2x: 0.00E+00 2u: 0.00E+00 ir: 6.89E-01 iu: 0.00E+00 rsn:   0
  1 2r: 2.00E-02 2x: 1.23E+04 2u: 7.48E+00 ir: 1.41E-03 iu: 4.51E-01 rsn:   0
  2 2r: 1.27E-04 2x: 1.23E+04 2u: 5.76E-01 ir: 1.73E-05 iu: 7.57E-02 rsn:   0
  3 2r: 2.91E-06 2x: 1.23E+04 2u: 6.28E-03 ir: 1.19E-07 iu: 3.01E-03 rsn:   0
  4 2r: 2.88E-06 2x: 1.23E+04 2u: 4.87E-06 ir: 1.19E-07 iu: 4.54E-06 rsn: stol
 Step     12 Time=  8.56164E-10 Dt=  1.26839E-10 [y] snes_conv_reason:    4
  newton =   4 [      63] linear =     4 [        63] cuts =  0 [   0]
  --> max chng: dcmx=   2.2903E-08  dc/dt=   5.7257E-06 [mol/s]

== REACTIVE TRANSPORT ==========================================================
  0 2r: 2.36E+00 2x: 0.00E+00 2u: 0.00E+00 ir: 6.89E-01 iu: 0.00E+00 rsn:   0
  1 2r: 1.70E-02 2x: 1.23E+04 2u: 6.42E+00 ir: 1.20E-03 iu: 3.11E-01 rsn:   0
  2 2r: 7.97E-05 2x: 1.23E+04 2u: 4.17E-01 ir: 5.96E-06 iu: 3.93E-02 rsn:   0
  3 2r: 2.80E-06 2x: 1.23E+04 2u: 2.61E-03 ir: 1.19E-07 iu: 7.95E-04 rsn:   0
  4 2r: 2.78E-06 2x: 1.23E+04 2u: 3.90E-07 ir: 1.19E-07 iu: 3.16E-07 rsn: stol
 Step     13 Time=  9.83004E-10 Dt=  1.26839E-10 [y] snes_conv_reason:    4
  newton =   4 [      67] linear =     4 [        67] cuts =  0 [   0]
  --> max chng: dcmx=   2.2903E-08  dc/dt=   5.7257E-06 [mol/s]

== AUXILIARY SALINITY ==========================================================

== RICHARDS FLOW ===============================================================
  0 2r: 2.21E+01 2x: 0.00E+00 2u: 0.00E+00 ir: 3.36E+00 iu: 0.00E+00 rsn:   0
  1 2r: 1.34E-04 2x: 3.43E+09 2u: 5.59E+04 ir: 2.76E-05 iu: 1.39E+04 rsn: rtol
 Step      6 Time=  1.99772E-09 Dt=  1.01471E-09 [y] snes_conv_reason:    3
  newton =   1 [       6] linear =     2 [        10] cuts =  0 [   0]
  --> max chng: dpmx=   1.3943E+04

== REACTIVE TRANSPORT ==========================================================
  0 2r: 2.35E+00 2x: 0.00E+00 2u: 0.00E+00 ir: 6.86E-01 iu: 0.00E+00 rsn:   0
  1 2r: 4.07E-02 2x: 1.23E+04 2u: 1.53E+01 ir: 1.86E-02 iu: 4.77E+00 rsn:   0
  2 2r: 9.37E-03 2x: 1.23E+04 2u: 2.62E+00 ir: 6.59E-03 iu: 9.51E-01 rsn:   0
  3 2r: 3.01E-03 2x: 1.23E+04 2u: 1.54E+00 ir: 2.20E-03 iu: 8.73E-01 rsn:   0
  4 2r: 7.97E-04 2x: 1.23E+04 2u: 1.06E+00 ir: 6.14E-04 iu: 6.97E-01 rsn:   0
  5 2r: 1.30E-04 2x: 1.23E+04 2u: 5.28E-01 ir: 1.06E-04 iu: 3.92E-01 rsn:   0
  6 2r: 5.98E-06 2x: 1.23E+04 2u: 1.24E-01 ir: 5.12E-06 iu: 9.99E-02 rsn:   0
  7 2r: 1.54E-06 2x: 1.23E+04 2u: 6.04E-03 ir: 5.96E-08 iu: 5.34E-03 rsn:   0
  8 2r: 1.55E-06 2x: 1.23E+04 2u: 1.48E-05 ir: 5.96E-08 iu: 1.43E-05 rsn: stol
 Step     14 Time=  1.23668E-09 Dt=  2.53678E-10 [y] snes_conv_reason:    4
  newton =   8 [      75] linear =     8 [        75] cuts =  0 [   0]
  --> max chng: dcmx=   3.8890E-08  dc/dt=   4.8613E-06 [mol/s]

== REACTIVE TRANSPORT ==========================================================
  0 2r: 2.35E+00 2x: 0.00E+00 2u: 0.00E+00 ir: 6.86E-01 iu: 0.00E+00 rsn:   0
  1 2r: 1.16E-02 2x: 1.23E+04 2u: 4.94E+00 ir: 8.53E-04 iu: 4.13E-01 rsn:   0
  2 2r: 3.19E-05 2x: 1.23E+04 2u: 2.92E-01 ir: 6.98E-06 iu: 6.52E-02 rsn:   0
  3 2r: 2.84E-06 2x: 1.23E+04 2u: 4.39E-03 ir: 1.19E-07 iu: 2.22E-03 rsn:   0
  4 2r: 2.81E-06 2x: 1.23E+04 2u: 4.02E-06 ir: 1.19E-07 iu: 2.46E-06 rsn: stol
 Step     15 Time=  1.36352E-09 Dt=  1.26839E-10 [y] snes_conv_reason:    4
  newton =   4 [      79] linear =     4 [        79] cuts =  0 [   0]
  --> max chng: dcmx=   1.9445E-08  dc/dt=   4.8613E-06 [mol/s]

== REACTIVE TRANSPORT ==========================================================
  0 2r: 2.35E+00 2x: 0.00E+00 2u: 0.00E+00 ir: 6.86E-01 iu: 0.00E+00 rsn:   0
  1 2r: 2.16E-02 2x: 1.23E+04 2u: 8.86E+00 ir: 1.59E-03 iu: 5.85E-01 rsn:   0
  2 2r: 1.68E-04 2x: 1.23E+04 2u: 7.99E-01 ir: 2.13E-05 iu: 1.17E-01 rsn:   0
  3 2r: 1.49E-06 2x: 1.23E+04 2u: 1.80E-02 ir: 6.21E-08 iu: 7.40E-03 rsn:   0
  4 2r: 1.47E-06 2x: 1.23E+04 2u: 4.83E-05 ir: 5.96E-08 iu: 2.75E-05 rsn: stol
 Step     16 Time=  1.61720E-09 Dt=  2.53678E-10 [y] snes_conv_reason:    4
  newton =   4 [      83] linear =     4 [        83] cuts =  0 [   0]
  --> max chng: dcmx=   3.8890E-08  dc/dt=   4.8613E-06 [mol/s]

== REACTIVE TRANSPORT ==========================================================
  0 2r: 2.35E+00 2x: 0.00E+00 2u: 0.00E+00 ir: 6.86E-01 iu: 0.00E+00 rsn:   0
  1 2r: 2.79E-02 2x: 1.23E+04 2u: 1.11E+01 ir: 2.05E-03 iu: 5.54E-01 rsn:   0
  2 2r: 3.25E-04 2x: 1.23E+04 2u: 1.14E+00 ir: 2.68E-05 iu: 1.07E-01 rsn:   0
  3 2r: 1.50E-06 2x: 1.23E+04 2u: 2.25E-02 ir: 4.88E-08 iu: 6.13E-03 rsn:   0
  4 2r: 1.46E-06 2x: 1.23E+04 2u: 3.76E-05 ir: 4.47E-08 iu: 1.89E-05 rsn: stol
 Step     17 Time=  1.99772E-09 Dt=  3.80518E-10 [y] snes_conv_reason:    4
  newton =   4 [      87] linear =     4 [        87] cuts =  0 [   0]
  --> max chng: dcmx=   5.8335E-08  dc/dt=   4.8613E-06 [mol/s]

== AUXILIARY SALINITY ==========================================================

== RICHARDS FLOW ===============================================================
  0 2r: 2.19E+01 2x: 0.00E+00 2u: 0.00E+00 ir: 3.33E+00 iu: 0.00E+00 rsn:   0
  1 2r: 2.57E-04 2x: 3.43E+09 2u: 1.10E+05 ir: 5.15E-05 iu: 2.70E+04 rsn: rtol
 Step      7 Time=  4.02714E-09 Dt=  2.02943E-09 [y] snes_conv_reason:    3
  newton =   1 [       7] linear =     3 [        13] cuts =  0 [   0]
  --> max chng: dpmx=   2.6976E+04

== REACTIVE TRANSPORT ==========================================================
  0 2r: 2.33E+00 2x: 0.00E+00 2u: 0.00E+00 ir: 6.81E-01 iu: 0.00E+00 rsn:   0
  1 2r: 6.18E-02 2x: 1.23E+04 2u: 2.56E+01 ir: 1.52E-02 iu: 5.00E+00 rsn:   0
  2 2r: 1.33E-02 2x: 1.23E+04 2u: 4.95E+00 ir: 5.40E-03 iu: 9.56E-01 rsn:   0
  3 2r: 4.33E-03 2x: 1.23E+04 2u: 2.72E+00 ir: 1.81E-03 iu: 8.85E-01 rsn:   0
  4 2r: 1.17E-03 2x: 1.23E+04 2u: 1.91E+00 ir: 5.18E-04 iu: 7.22E-01 rsn:   0
  5 2r: 1.91E-04 2x: 1.23E+04 2u: 9.66E-01 ir: 9.64E-05 iu: 4.28E-01 rsn:   0
  6 2r: 9.09E-06 2x: 1.23E+04 2u: 2.27E-01 ir: 5.68E-06 iu: 1.23E-01 rsn:   0
  7 2r: 7.32E-07 2x: 1.23E+04 2u: 1.23E-02 ir: 2.31E-08 iu: 8.16E-03 rsn:   0
  8 2r: 7.44E-07 2x: 1.23E+04 2u: 4.37E-05 ir: 2.24E-08 iu: 3.35E-05 rsn: stol
 Step     18 Time=  2.75875E-09 Dt=  7.61035E-10 [y] snes_conv_reason:    4
  newton =   8 [      95] linear =     8 [        95] cuts =  0 [   0]
  --> max chng: dcmx=   1.1158E-07  dc/dt=   4.6490E-06 [mol/s]

== REACTIVE TRANSPORT ==========================================================
  0 2r: 2.33E+00 2x: 0.00E+00 2u: 0.00E+00 ir: 6.81E-01 iu: 0.00E+00 rsn:   0
  1 2r: 1.61E-02 2x: 1.23E+04 2u: 7.17E+00 ir: 1.18E-03 iu: 4.50E-01 rsn:   0
  2 2r: 7.66E-05 2x: 1.23E+04 2u: 5.34E-01 ir: 7.62E-06 iu: 7.55E-02 rsn:   0
  3 2r: 1.49E-06 2x: 1.23E+04 2u: 9.24E-03 ir: 4.47E-08 iu: 3.00E-03 rsn:   0
  4 2r: 1.45E-06 2x: 1.23E+04 2u: 1.05E-05 ir: 4.47E-08 iu: 4.50E-06 rsn: stol
 Step     19 Time=  3.13927E-09 Dt=  3.80518E-10 [y] snes_conv_reason:    4
  newton =   4 [      99] linear =     4 [        99] cuts =  0 [   0]
  --> max chng: dcmx=   5.5788E-08  dc/dt=   4.6490E-06 [mol/s]

== REACTIVE TRANSPORT ==========================================================
  0 2r: 2.33E+00 2x: 0.00E+00 2u: 0.00E+00 ir: 6.81E-01 iu: 0.00E+00 rsn:   0
  1 2r: 2.93E-02 2x: 1.23E+04 2u: 1.25E+01 ir: 2.14E-03 iu: 6.21E-01 rsn:   0
  2 2r: 3.81E-04 2x: 1.23E+04 2u: 1.37E+00 ir: 2.92E-05 iu: 1.29E-01 rsn:   0
  3 2r: 7.87E-07 2x: 1.23E+04 2u: 3.67E-02 ir: 8.46E-08 iu: 9.04E-03 rsn:   0
  4 2r: 7.42E-07 2x: 1.23E+04 2u: 1.08E-04 ir: 1.49E-08 iu: 4.12E-05 rsn: stol
 Step     20 Time=  3.90030E-09 Dt=  7.61035E-10 [y] snes_conv_reason:    4
  newton =   4 [     103] linear =     4 [       103] cuts =  0 [   0]
  --> max chng: dcmx=   1.1158E-07  dc/dt=   4.6490E-06 [mol/s]

== REACTIVE TRANSPORT ==========================================================
  0 2r: 2.33E+00 2x: 0.00E+00 2u: 0.00E+00 ir: 6.81E-01 iu: 0.00E+00 rsn:   0
  1 2r: 3.65E-03 2x: 1.23E+04 2u: 1.66E+00 ir: 2.67E-04 iu: 6.38E-02 rsn:   0
  2 2r: 3.28E-06 2x: 1.23E+04 2u: 2.70E-02 ir: 1.19E-07 iu: 1.95E-03 rsn:   0
  3 2r: 2.95E-06 2x: 1.23E+04 2u: 1.05E-05 ir: 1.19E-07 iu: 1.91E-06 rsn: stol
 Step     21 Time=  4.02714E-09 Dt=  1.26839E-10 [y] snes_conv_reason:    4
  newton =   3 [     106] linear =     3 [       106] cuts =  0 [   0]
  --> max chng: dcmx=   1.8596E-08  dc/dt=   4.6490E-06 [mol/s]

== AUXILIARY SALINITY ==========================================================

== RICHARDS FLOW ===============================================================
  0 2r: 2.16E+01 2x: 0.00E+00 2u: 0.00E+00 ir: 3.28E+00 iu: 0.00E+00 rsn:   0
  1 2r: 4.82E-04 2x: 3.43E+09 2u: 2.11E+05 ir: 9.01E-05 iu: 5.06E+04 rsn: rtol
 Step      8 Time=  8.08600E-09 Dt=  4.05885E-09 [y] snes_conv_reason:    3
  newton =   1 [       8] linear =     3 [        16] cuts =  0 [   0]
  --> max chng: dpmx=   5.0579E+04

== REACTIVE TRANSPORT ==========================================================
  0 2r: 2.29E+00 2x: 0.00E+00 2u: 0.00E+00 ir: 6.70E-01 iu: 0.00E+00 rsn:   0
  1 2r: 5.43E-02 2x: 1.23E+04 2u: 2.32E+01 ir: 1.83E-02 iu: 5.00E+00 rsn:   0
  2 2r: 7.42E-03 2x: 1.23E+04 2u: 4.36E+00 ir: 6.49E-03 iu: 9.52E-01 rsn:   0
  3 2r: 2.35E-03 2x: 1.23E+04 2u: 1.73E+00 ir: 2.16E-03 iu: 8.75E-01 rsn:   0
  4 2r: 6.50E-04 2x: 1.23E+04 2u: 1.08E+00 ir: 6.08E-04 iu: 7.00E-01 rsn:   0
  5 2r: 1.13E-04 2x: 1.23E+04 2u: 5.60E-01 ir: 1.06E-04 iu: 3.96E-01 rsn:   0
  6 2r: 5.58E-06 2x: 1.23E+04 2u: 1.43E-01 ir: 5.24E-06 iu: 1.02E-01 rsn:   0
  7 2r: 3.63E-07 2x: 1.23E+04 2u: 7.73E-03 ir: 1.47E-08 iu: 5.62E-03 rsn:   0
  8 2r: 3.70E-07 2x: 1.23E+04 2u: 2.12E-05 ir: 1.12E-08 iu: 1.59E-05 rsn: stol
 Step     22 Time=  5.54921E-09 Dt=  1.52207E-09 [y] snes_conv_reason:    4
  newton =   8 [     114] linear =     8 [       114] cuts =  0 [   0]
  --> max chng: dcmx=   2.1627E-07  dc/dt=   4.5056E-06 [mol/s]

== REACTIVE TRANSPORT ==========================================================
  0 2r: 2.29E+00 2x: 0.00E+00 2u: 0.00E+00 ir: 6.70E-01 iu: 0.00E+00 rsn:   0
  1 2r: 1.64E-02 2x: 1.23E+04 2u: 7.42E+00 ir: 1.19E-03 iu: 4.31E-01 rsn:   0
  2 2r: 7.77E-05 2x: 1.23E+04 2u: 5.16E-01 ir: 6.78E-06 iu: 7.01E-02 rsn:   0
  3 2r: 7.40E-07 2x: 1.23E+04 2u: 6.21E-03 ir: 2.24E-08 iu: 2.58E-03 rsn:   0
  4 2r: 7.28E-07 2x: 1.23E+04 2u: 4.88E-06 ir: 2.24E-08 iu: 3.32E-06 rsn: stol
 Step     23 Time=  6.31025E-09 Dt=  7.61035E-10 [y] snes_conv_reason:    4
  newton =   4 [     118] linear =     4 [       118] cuts =  0 [   0]
  --> max chng: dcmx=   1.0813E-07  dc/dt=   4.5056E-06 [mol/s]

== REACTIVE TRANSPORT ==========================================================
  0 2r: 2.29E+00 2x: 0.00E+00 2u: 0.00E+00 ir: 6.70E-01 iu: 0.00E+00 rsn:   0
  1 2r: 2.97E-02 2x: 1.23E+04 2u: 1.30E+01 ir: 2.16E-03 iu: 6.03E-01 rsn:   0
  2 2r: 3.92E-04 2x: 1.23E+04 2u: 1.38E+00 ir: 3.11E-05 iu: 1.23E-01 rsn:   0
  3 2r: 3.95E-07 2x: 1.23E+04 2u: 2.99E-02 ir: 5.73E-08 iu: 8.18E-03 rsn:   0
  4 2r: 3.65E-07 2x: 1.23E+04 2u: 5.97E-05 ir: 1.12E-08 iu: 3.36E-05 rsn: stol
 Step     24 Time=  7.83232E-09 Dt=  1.52207E-09 [y] snes_conv_reason:    4
  newton =   4 [     122] linear =     4 [       122] cuts =  0 [   0]
  --> max chng: dcmx=   2.1627E-07  dc/dt=   4.5056E-06 [mol/s]

== REACTIVE TRANSPORT ==========================================================
  0 2r: 2.29E+00 2x: 0.00E+00 2u: 0.00E+00 ir: 6.70E-01 iu: 0.00E+00 rsn:   0
  1 2r: 3.70E-03 2x: 1.23E+04 2u: 1.74E+00 ir: 2.67E-04 iu: 6.27E-02 rsn:   0
  2 2r: 1.91E-06 2x: 1.23E+04 2u: 2.78E-02 ir: 7.65E-08 iu: 1.88E-03 rsn:   0
  3 2r: 1.50E-06 2x: 1.23E+04 2u: 9.56E-06 ir: 5.96E-08 iu: 1.78E-06 rsn: stol
 Step     25 Time=  8.08600E-09 Dt=  2.53678E-10 [y] snes_conv_reason:    4
  newton =   3 [     125] linear =     3 [       125] cuts =  0 [   0]
  --> max chng: dcmx=   3.6045E-08  dc/dt=   4.5056E-06 [mol/s]

== AUXILIARY SALINITY ==========================================================

== RICHARDS FLOW ===============================================================
  0 2r: 2.10E+01 2x: 0.00E+00 2u: 0.00E+00 ir: 3.18E+00 iu: 0.00E+00 rsn:   0
  1 2r: 8.53E-04 2x: 3.43E+09 2u: 3.96E+05 ir: 1.40E-04 iu: 8.95E+04 rsn: rtol
 Step      9 Time=  1.62037E-08 Dt=  8.11771E-09 [y] snes_conv_reason:    3
  newton =   1 [       9] linear =     4 [        20] cuts =  0 [   0]
  --> max chng: dpmx=   8.9481E+04

== REACTIVE TRANSPORT ==========================================================
  0 2r: 2.23E+00 2x: 0.00E+00 2u: 0.00E+00 ir: 6.48E-01 iu: 0.00E+00 rsn:   0
  1 2r: 5.60E-02 2x: 1.23E+04 2u: 2.40E+01 ir: 1.71E-02 iu: 5.00E+00 rsn:   0
  2 2r: 8.75E-03 2x: 1.23E+04 2u: 4.37E+00 ir: 6.06E-03 iu: 9.56E-01 rsn:   0
  3 2r: 2.82E-03 2x: 1.23E+04 2u: 2.00E+00 ir: 2.03E-03 iu: 8.85E-01 rsn:   0
  4 2r: 7.85E-04 2x: 1.23E+04 2u: 1.29E+00 ir: 5.78E-04 iu: 7.21E-01 rsn:   0
  5 2r: 1.40E-04 2x: 1.23E+04 2u: 6.43E-01 ir: 1.04E-04 iu: 4.26E-01 rsn:   0
  6 2r: 7.79E-06 2x: 1.23E+04 2u: 1.67E-01 ir: 5.64E-06 iu: 1.21E-01 rsn:   0
  7 2r: 1.80E-07 2x: 1.23E+04 2u: 1.04E-02 ir: 2.12E-08 iu: 7.92E-03 rsn:   0
  8 2r: 1.82E-07 2x: 1.23E+04 2u: 3.91E-05 ir: 7.45E-09 iu: 3.15E-05 rsn: stol
 Step     26 Time=  1.11301E-08 Dt=  3.04414E-09 [y] snes_conv_reason:    4
  newton =   8 [     133] linear =     8 [       133] cuts =  0 [   0]
  --> max chng: dcmx=   4.2184E-07  dc/dt=   4.3941E-06 [mol/s]

== REACTIVE TRANSPORT ==========================================================
  0 2r: 2.23E+00 2x: 0.00E+00 2u: 0.00E+00 ir: 6.48E-01 iu: 0.00E+00 rsn:   0
  1 2r: 1.65E-02 2x: 1.23E+04 2u: 7.63E+00 ir: 1.21E-03 iu: 4.27E-01 rsn:   0
  2 2r: 7.70E-05 2x: 1.23E+04 2u: 5.20E-01 ir: 6.81E-06 iu: 6.89E-02 rsn:   0
  3 2r: 3.69E-07 2x: 1.23E+04 2u: 6.52E-03 ir: 1.12E-08 iu: 2.49E-03 rsn:   0
  4 2r: 3.62E-07 2x: 1.23E+04 2u: 5.60E-06 ir: 7.45E-09 iu: 3.10E-06 rsn: stol
 Step     27 Time=  1.26522E-08 Dt=  1.52207E-09 [y] snes_conv_reason:    4
  newton =   4 [     137] linear =     4 [       137] cuts =  0 [   0]
  --> max chng: dcmx=   2.1092E-07  dc/dt=   4.3941E-06 [mol/s]

== REACTIVE TRANSPORT ==========================================================
  0 2r: 2.23E+00 2x: 0.00E+00 2u: 0.00E+00 ir: 6.49E-01 iu: 0.00E+00 rsn:   0
  1 2r: 3.00E-02 2x: 1.23E+04 2u: 1.34E+01 ir: 2.18E-03 iu: 5.98E-01 rsn:   0
  2 2r: 3.91E-04 2x: 1.23E+04 2u: 1.41E+00 ir: 3.36E-05 iu: 1.21E-01 rsn:   0
  3 2r: 2.30E-07 2x: 1.23E+04 2u: 2.97E-02 ir: 6.03E-08 iu: 7.99E-03 rsn:   0
  4 2r: 1.82E-07 2x: 1.23E+04 2u: 6.73E-05 ir: 4.66E-09 iu: 3.21E-05 rsn: stol
 Step     28 Time=  1.56963E-08 Dt=  3.04414E-09 [y] snes_conv_reason:    4
  newton =   4 [     141] linear =     4 [       141] cuts =  0 [   0]
  --> max chng: dcmx=   4.2184E-07  dc/dt=   4.3941E-06 [mol/s]

== REACTIVE TRANSPORT ==========================================================
  0 2r: 2.23E+00 2x: 0.00E+00 2u: 0.00E+00 ir: 6.49E-01 iu: 0.00E+00 rsn:   0
  1 2r: 3.72E-03 2x: 1.23E+04 2u: 1.79E+00 ir: 2.63E-04 iu: 6.24E-02 rsn:   0
  2 2r: 1.28E-06 2x: 1.23E+04 2u: 2.85E-02 ir: 8.21E-08 iu: 1.87E-03 rsn:   0
  3 2r: 7.31E-07 2x: 1.23E+04 2u: 9.40E-06 ir: 2.98E-08 iu: 1.75E-06 rsn: stol
 Step     29 Time=  1.62037E-08 Dt=  5.07357E-10 [y] snes_conv_reason:    4
  newton =   3 [     144] linear =     3 [       144] cuts =  0 [   0]
  --> max chng: dcmx=   7.0306E-08  dc/dt=   4.3941E-06 [mol/s]

== AUXILIARY SALINITY ==========================================================

== RICHARDS FLOW ===============================================================
  0 2r: 1.99E+01 2x: 0.00E+00 2u: 0.00E+00 ir: 3.00E+00 iu: 0.00E+00 rsn:   0
  1 2r: 1.36E-03 2x: 3.43E+09 2u: 7.03E+05 ir: 2.18E-04 iu: 1.46E+05 rsn: rtol
 Step     10 Time=  3.24391E-08 Dt=  1.62354E-08 [y] snes_conv_reason:    3
  newton =   1 [      10] linear =     4 [        24] cuts =  0 [   0]
  --> max chng: dpmx=   1.4633E+05

== REACTIVE TRANSPORT ==========================================================
  0 2r: 2.11E+00 2x: 0.00E+00 2u: 0.00E+00 ir: 6.07E-01 iu: 0.00E+00 rsn:   0
  1 2r: 5.13E-02 2x: 1.23E+04 2u: 2.55E+01 ir: 8.93E-03 iu: 5.00E+00 rsn:   0
  2 2r: 6.05E-03 2x: 1.23E+04 2u: 4.55E+00 ir: 3.19E-03 iu: 9.58E-01 rsn:   0
  3 2r: 1.94E-03 2x: 1.23E+04 2u: 2.47E+00 ir: 1.08E-03 iu: 8.91E-01 rsn:   0
  4 2r: 5.36E-04 2x: 1.23E+04 2u: 1.72E+00 ir: 3.14E-04 iu: 7.35E-01 rsn:   0
  5 2r: 9.33E-05 2x: 1.23E+04 2u: 8.96E-01 ir: 6.09E-05 iu: 4.47E-01 rsn:   0
  6 2r: 5.15E-06 2x: 1.23E+04 2u: 2.23E-01 ir: 3.94E-06 iu: 1.35E-01 rsn:   0
  7 2r: 9.11E-08 2x: 1.23E+04 2u: 1.35E-02 ir: 1.96E-08 iu: 1.00E-02 rsn:   0
  8 2r: 9.02E-08 2x: 1.23E+04 2u: 5.79E-05 ir: 1.86E-09 iu: 5.04E-05 rsn: stol
 Step     30 Time=  2.22920E-08 Dt=  6.08828E-09 [y] snes_conv_reason:    4
  newton =   8 [     152] linear =     8 [       152] cuts =  0 [   0]
  --> max chng: dcmx=   8.2831E-07  dc/dt=   4.3141E-06 [mol/s]

== REACTIVE TRANSPORT ==========================================================
  0 2r: 2.11E+00 2x: 0.00E+00 2u: 0.00E+00 ir: 6.08E-01 iu: 0.00E+00 rsn:   0
  1 2r: 1.61E-02 2x: 1.23E+04 2u: 7.78E+00 ir: 1.25E-03 iu: 4.43E-01 rsn:   0
  2 2r: 7.17E-05 2x: 1.23E+04 2u: 5.32E-01 ir: 6.62E-06 iu: 7.34E-02 rsn:   0
  3 2r: 1.84E-07 2x: 1.23E+04 2u: 7.72E-03 ir: 5.59E-09 iu: 2.83E-03 rsn:   0
  4 2r: 1.80E-07 2x: 1.23E+04 2u: 8.15E-06 ir: 3.73E-09 iu: 4.00E-06 rsn: stol
 Step     31 Time=  2.53361E-08 Dt=  3.04414E-09 [y] snes_conv_reason:    4
  newton =   4 [     156] linear =     4 [       156] cuts =  0 [   0]
  --> max chng: dcmx=   4.1416E-07  dc/dt=   4.3141E-06 [mol/s]

== REACTIVE TRANSPORT ==========================================================
  0 2r: 2.11E+00 2x: 0.00E+00 2u: 0.00E+00 ir: 6.09E-01 iu: 0.00E+00 rsn:   0
  1 2r: 2.92E-02 2x: 1.23E+04 2u: 1.36E+01 ir: 2.26E-03 iu: 6.14E-01 rsn:   0
  2 2r: 3.69E-04 2x: 1.23E+04 2u: 1.43E+00 ir: 3.31E-05 iu: 1.26E-01 rsn:   0
  3 2r: 1.38E-07 2x: 1.23E+04 2u: 3.18E-02 ir: 4.00E-08 iu: 8.70E-03 rsn:   0
  4 2r: 9.10E-08 2x: 1.23E+04 2u: 8.85E-05 ir: 2.79E-09 iu: 3.81E-05 rsn: stol
 Step     32 Time=  3.14244E-08 Dt=  6.08828E-09 [y] snes_conv_reason:    4
  newton =   4 [     160] linear =     4 [       160] cuts =  0 [   0]
  --> max chng: dcmx=   8.2831E-07  dc/dt=   4.3141E-06 [mol/s]

== REACTIVE TRANSPORT ==========================================================
  0 2r: 2.11E+00 2x: 0.00E+00 2u: 0.00E+00 ir: 6.09E-01 iu: 0.00E+00 rsn:   0
  1 2r: 3.65E-03 2x: 1.23E+04 2u: 1.83E+00 ir: 2.75E-04 iu: 6.34E-02 rsn:   0
  2 2r: 1.04E-06 2x: 1.23E+04 2u: 2.90E-02 ir: 8.22E-08 iu: 1.93E-03 rsn:   0
  3 2r: 3.78E-07 2x: 1.23E+04 2u: 9.63E-06 ir: 1.49E-08 iu: 1.86E-06 rsn: stol
 Step     33 Time=  3.24391E-08 Dt=  1.01471E-09 [y] snes_conv_reason:    4
  newton =   3 [     163] linear =     3 [       163] cuts =  0 [   0]
  --> max chng: dcmx=   1.3805E-07  dc/dt=   4.3141E-06 [mol/s]

== AUXILIARY SALINITY ==========================================================

== RICHARDS FLOW ===============================================================
  0 2r: 1.80E+01 2x: 0.00E+00 2u: 0.00E+00 ir: 2.68E+00 iu: 0.00E+00 rsn:   0
  1 2r: 1.82E-03 2x: 3.43E+09 2u: 1.15E+06 ir: 2.88E-04 iu: 2.34E+05 rsn:   0
  2 2r: 1.13E-09 2x: 3.43E+09 2u: 1.24E+02 ir: 1.36E-10 iu: 3.82E+01 rsn: atol
 Step     11 Time=  6.49099E-08 Dt=  3.24708E-08 [y] snes_conv_reason:    2
  newton =   2 [      12] linear =    12 [        36] cuts =  0 [   0]
  --> max chng: dpmx=   2.3393E+05

== REACTIVE TRANSPORT ==========================================================
  0 2r: 1.90E+00 2x: 0.00E+00 2u: 0.00E+00 ir: 5.31E-01 iu: 0.00E+00 rsn:   0
  1 2r: 4.84E-02 2x: 1.23E+04 2u: 2.59E+01 ir: 8.73E-03 iu: 5.00E+00 rsn:   0
  2 2r: 6.30E-03 2x: 1.23E+04 2u: 4.93E+00 ir: 2.99E-03 iu: 9.55E-01 rsn:   0
  3 2r: 1.91E-03 2x: 1.23E+04 2u: 2.37E+00 ir: 9.60E-04 iu: 8.84E-01 rsn:   0
  4 2r: 4.69E-04 2x: 1.23E+04 2u: 1.38E+00 ir: 2.75E-04 iu: 7.18E-01 rsn:   0
  5 2r: 6.77E-05 2x: 1.23E+04 2u: 6.35E-01 ir: 5.07E-05 iu: 4.22E-01 rsn:   0
  6 2r: 3.21E-06 2x: 1.23E+04 2u: 1.45E-01 ir: 2.89E-06 iu: 1.19E-01 rsn:   0
  7 2r: 4.74E-08 2x: 1.23E+04 2u: 8.20E-03 ir: 1.10E-08 iu: 7.62E-03 rsn:   0
  8 2r: 4.70E-08 2x: 1.23E+04 2u: 2.96E-05 ir: 1.40E-09 iu: 2.92E-05 rsn: stol
 Step     34 Time=  4.46157E-08 Dt=  1.21766E-08 [y] snes_conv_reason:    4
  newton =   8 [     171] linear =     8 [       171] cuts =  0 [   0]
  --> max chng: dcmx=   1.6155E-06  dc/dt=   4.2071E-06 [mol/s]

== REACTIVE TRANSPORT ==========================================================
  0 2r: 1.90E+00 2x: 0.00E+00 2u: 0.00E+00 ir: 5.32E-01 iu: 0.00E+00 rsn:   0
  1 2r: 1.51E-02 2x: 1.23E+04 2u: 7.92E+00 ir: 1.21E-03 iu: 4.63E-01 rsn:   0
  2 2r: 6.53E-05 2x: 1.23E+04 2u: 5.53E-01 ir: 7.15E-06 iu: 7.91E-02 rsn:   0
  3 2r: 9.40E-08 2x: 1.23E+04 2u: 8.27E-03 ir: 1.18E-08 iu: 3.30E-03 rsn:   0
  4 2r: 9.10E-08 2x: 1.23E+04 2u: 8.39E-06 ir: 2.79E-09 iu: 5.44E-06 rsn: stol
 Step     35 Time=  5.07040E-08 Dt=  6.08828E-09 [y] snes_conv_reason:    4
  newton =   4 [     175] linear =     4 [       175] cuts =  0 [   0]
  --> max chng: dcmx=   8.0776E-07  dc/dt=   4.2071E-06 [mol/s]

== REACTIVE TRANSPORT ==========================================================
  0 2r: 1.90E+00 2x: 0.00E+00 2u: 0.00E+00 ir: 5.33E-01 iu: 0.00E+00 rsn:   0
  1 2r: 2.75E-02 2x: 1.23E+04 2u: 1.38E+01 ir: 2.19E-03 iu: 6.33E-01 rsn:   0
  2 2r: 3.35E-04 2x: 1.23E+04 2u: 1.47E+00 ir: 2.97E-05 iu: 1.33E-01 rsn:   0
  3 2r: 1.52E-07 2x: 1.23E+04 2u: 3.46E-02 ir: 8.23E-08 iu: 9.63E-03 rsn:   0
  4 2r: 4.55E-08 2x: 1.23E+04 2u: 9.12E-05 ir: 9.31E-10 iu: 4.66E-05 rsn: stol
 Step     36 Time=  6.28805E-08 Dt=  1.21766E-08 [y] snes_conv_reason:    4
  newton =   4 [     179] linear =     4 [       179] cuts =  0 [   0]
  --> max chng: dcmx=   1.6155E-06  dc/dt=   4.2071E-06 [mol/s]

== REACTIVE TRANSPORT ==========================================================
  0 2r: 1.91E+00 2x: 0.00E+00 2u: 0.00E+00 ir: 5.33E-01 iu: 0.00E+00 rsn:   0
  1 2r: 3.45E-03 2x: 1.23E+04 2u: 1.85E+00 ir: 2.69E-04 iu: 6.46E-02 rsn:   0
  2 2r: 8.94E-07 2x: 1.23E+04 2u: 2.96E-02 ir: 7.53E-08 iu: 2.00E-03 rsn:   0
  3 2r: 1.87E-07 2x: 1.23E+04 2u: 1.03E-05 ir: 7.45E-09 iu: 2.00E-06 rsn: stol
 Step     37 Time=  6.49099E-08 Dt=  2.02943E-09 [y] snes_conv_reason:    4
  newton =   3 [     182] linear =     3 [       182] cuts =  0 [   0]
  --> max chng: dcmx=   2.6925E-07  dc/dt=   4.2071E-06 [mol/s]

== AUXILIARY SALINITY ==========================================================

== RICHARDS FLOW ===============================================================
  0 2r: 1.50E+01 2x: 0.00E+00 2u: 0.00E+00 ir: 2.28E+00 iu: 0.00E+00 rsn:   0
  1 2r: 1.65E-03 2x: 3.43E+09 2u: 1.38E+06 ir: 3.07E-04 iu: 2.63E+05 rsn:   0
  2 2r: 8.87E-10 2x: 3.43E+09 2u: 1.60E+02 ir: 2.46E-10 iu: 4.35E+01 rsn: atol
 Step     12 Time=  1.15846E-07 Dt=  5.09364E-08 [y] snes_conv_reason:    2
  newton =   2 [      14] linear =    13 [        49] cuts =  0 [   0]
  --> max chng: dpmx=   2.6343E+05

== REACTIVE TRANSPORT ==========================================================
  0 2r: 1.68E+00 2x: 0.00E+00 2u: 0.00E+00 ir: 4.45E-01 iu: 0.00E+00 rsn:   0
  1 2r: 5.16E-02 2x: 1.23E+04 2u: 2.94E+01 ir: 1.33E-02 iu: 5.00E+00 rsn:   0
  2 2r: 1.08E-02 2x: 1.23E+04 2u: 5.76E+00 ir: 4.75E-03 iu: 9.58E-01 rsn:   0
  3 2r: 3.53E-03 2x: 1.23E+04 2u: 3.38E+00 ir: 1.60E-03 iu: 8.91E-01 rsn:   0
  4 2r: 9.97E-04 2x: 1.23E+04 2u: 2.28E+00 ir: 4.68E-04 iu: 7.34E-01 rsn:   0
  5 2r: 1.83E-04 2x: 1.23E+04 2u: 1.24E+00 ir: 9.04E-05 iu: 4.46E-01 rsn:   0
  6 2r: 1.07E-05 2x: 1.23E+04 2u: 3.37E-01 ir: 5.82E-06 iu: 1.35E-01 rsn:   0
  7 2r: 5.14E-08 2x: 1.23E+04 2u: 2.20E-02 ir: 2.87E-08 iu: 9.91E-03 rsn:   0
  8 2r: 2.32E-08 2x: 1.23E+04 2u: 9.31E-05 ir: 6.98E-10 iu: 4.94E-05 rsn: stol
 Step     38 Time=  8.92631E-08 Dt=  2.43531E-08 [y] snes_conv_reason:    4
  newton =   8 [     190] linear =     8 [       190] cuts =  0 [   0]
  --> max chng: dcmx=   3.2757E-06  dc/dt=   4.2653E-06 [mol/s]

== REACTIVE TRANSPORT ==========================================================
  0 2r: 1.68E+00 2x: 0.00E+00 2u: 0.00E+00 ir: 4.46E-01 iu: 0.00E+00 rsn:   0
  1 2r: 1.41E-02 2x: 1.23E+04 2u: 8.15E+00 ir: 1.12E-03 iu: 4.50E-01 rsn:   0
  2 2r: 5.97E-05 2x: 1.23E+04 2u: 5.97E-01 ir: 4.93E-06 iu: 7.56E-02 rsn:   0
  3 2r: 4.96E-08 2x: 1.23E+04 2u: 1.04E-02 ir: 5.49E-09 iu: 3.00E-03 rsn:   0
  4 2r: 4.67E-08 2x: 1.23E+04 2u: 1.03E-05 ir: 1.40E-09 iu: 4.52E-06 rsn: stol
 Step     39 Time=  1.01440E-07 Dt=  1.21766E-08 [y] snes_conv_reason:    4
  newton =   4 [     194] linear =     4 [       194] cuts =  0 [   0]
  --> max chng: dcmx=   1.6379E-06  dc/dt=   4.2653E-06 [mol/s]

== REACTIVE TRANSPORT ==========================================================
  0 2r: 1.69E+00 2x: 0.00E+00 2u: 0.00E+00 ir: 4.47E-01 iu: 0.00E+00 rsn:   0
  1 2r: 1.47E-02 2x: 1.23E+04 2u: 8.40E+00 ir: 1.17E-03 iu: 3.67E-01 rsn:   0
  2 2r: 6.57E-05 2x: 1.23E+04 2u: 5.86E-01 ir: 5.52E-06 iu: 5.30E-02 rsn:   0
  3 2r: 3.54E-08 2x: 1.23E+04 2u: 6.31E-03 ir: 1.49E-09 iu: 1.46E-03 rsn:   0
  4 2r: 3.44E-08 2x: 1.23E+04 2u: 2.91E-06 ir: 1.40E-09 iu: 1.06E-06 rsn: stol
 Step     40 Time=  1.15846E-07 Dt=  1.44067E-08 [y] snes_conv_reason:    4
  newton =   4 [     198] linear =     4 [       198] cuts =  0 [   0]
  --> max chng: dcmx=   1.9378E-06  dc/dt=   4.2653E-06 [mol/s]

== AUXILIARY SALINITY ==========================================================

== RICHARDS FLOW ===============================================================
  0 2r: 1.18E+01 2x: 0.00E+00 2u: 0.00E+00 ir: 1.92E+00 iu: 0.00E+00 rsn:   0
  1 2r: 1.23E-03 2x: 3.43E+09 2u: 1.49E+06 ir: 2.72E-04 iu: 2.43E+05 rsn:   0
  2 2r: 7.72E-10 2x: 3.43E+09 2u: 1.59E+02 ir: 3.62E-10 iu: 3.29E+01 rsn: atol
 Step     13 Time=  1.89654E-07 Dt=  7.38072E-08 [y] snes_conv_reason:    2
  newton =   2 [      16] linear =    14 [        63] cuts =  0 [   0]
  --> max chng: dpmx=   2.4334E+05

== REACTIVE TRANSPORT ==========================================================
  0 2r: 1.48E+00 2x: 0.00E+00 2u: 0.00E+00 ir: 3.71E-01 iu: 0.00E+00 rsn:   0
  1 2r: 2.51E-02 2x: 1.23E+04 2u: 1.64E+01 ir: 1.98E-03 iu: 3.39E+00 rsn:   0
  2 2r: 5.98E-04 2x: 1.23E+04 2u: 2.59E+00 ir: 3.65E-04 iu: 8.52E-01 rsn:   0
  3 2r: 9.91E-05 2x: 1.23E+04 2u: 7.90E-01 ir: 9.69E-05 iu: 6.54E-01 rsn:   0
  4 2r: 1.45E-05 2x: 1.23E+04 2u: 3.37E-01 ir: 1.45E-05 iu: 3.34E-01 rsn:   0
  5 2r: 4.98E-07 2x: 1.23E+04 2u: 7.01E-02 ir: 4.98E-07 iu: 7.01E-02 rsn:   0
  6 2r: 1.72E-08 2x: 1.23E+04 2u: 2.57E-03 ir: 6.40E-10 iu: 2.57E-03 rsn:   0
  7 2r: 1.70E-08 2x: 1.23E+04 2u: 3.32E-06 ir: 6.98E-10 iu: 3.32E-06 rsn: stol
 Step     41 Time=  1.44660E-07 Dt=  2.88134E-08 [y] snes_conv_reason:    4
  newton =   7 [     205] linear =     7 [       205] cuts =  0 [   0]
  --> max chng: dcmx=   3.9247E-06  dc/dt=   4.3192E-06 [mol/s]

== REACTIVE TRANSPORT ==========================================================
  0 2r: 1.48E+00 2x: 0.00E+00 2u: 0.00E+00 ir: 3.71E-01 iu: 0.00E+00 rsn:   0
  1 2r: 9.60E-03 2x: 1.23E+04 2u: 6.06E+00 ir: 7.58E-04 iu: 3.86E-01 rsn:   0
  2 2r: 2.21E-05 2x: 1.23E+04 2u: 3.32E-01 ir: 1.71E-06 iu: 5.79E-02 rsn:   0
  3 2r: 3.47E-08 2x: 1.23E+04 2u: 3.27E-03 ir: 1.40E-09 iu: 1.74E-03 rsn:   0
  4 2r: 3.40E-08 2x: 1.23E+04 2u: 1.72E-06 ir: 1.40E-09 iu: 1.52E-06 rsn: stol
 Step     42 Time=  1.59066E-07 Dt=  1.44067E-08 [y] snes_conv_reason:    4
  newton =   4 [     209] linear =     4 [       209] cuts =  0 [   0]
  --> max chng: dcmx=   1.9623E-06  dc/dt=   4.3192E-06 [mol/s]

== REACTIVE TRANSPORT ==========================================================
  0 2r: 1.48E+00 2x: 0.00E+00 2u: 0.00E+00 ir: 3.72E-01 iu: 0.00E+00 rsn:   0
  1 2r: 1.92E-02 2x: 1.23E+04 2u: 1.17E+01 ir: 1.51E-03 iu: 5.91E-01 rsn:   0
  2 2r: 1.50E-04 2x: 1.23E+04 2u: 1.07E+00 ir: 1.19E-05 iu: 1.19E-01 rsn:   0
  3 2r: 4.25E-08 2x: 1.23E+04 2u: 2.07E-02 ir: 1.27E-08 iu: 7.68E-03 rsn:   0
  4 2r: 1.38E-08 2x: 1.23E+04 2u: 4.03E-05 ir: 6.98E-10 iu: 2.97E-05 rsn: rtol
 Step     43 Time=  1.89654E-07 Dt=  3.05871E-08 [y] snes_conv_reason:    3
  newton =   4 [     213] linear =     4 [       213] cuts =  0 [   0]
  --> max chng: dcmx=   4.1662E-06  dc/dt=   4.3191E-06 [mol/s]

== AUXILIARY SALINITY ==========================================================

== RICHARDS FLOW ===============================================================
  0 2r: 8.97E+00 2x: 0.00E+00 2u: 0.00E+00 ir: 1.50E+00 iu: 0.00E+00 rsn:   0
  1 2r: 9.02E-04 2x: 3.43E+09 2u: 1.64E+06 ir: 2.06E-04 iu: 2.28E+05 rsn:   0
  2 2r: 1.25E-09 2x: 3.43E+09 2u: 1.76E+02 ir: 3.88E-10 iu: 3.14E+01 rsn: atol
 Step     14 Time=  3.02384E-07 Dt=  1.12731E-07 [y] snes_conv_reason:    2
  newton =   2 [      18] linear =    15 [        78] cuts =  0 [   0]
  --> max chng: dpmx=   2.2790E+05

== REACTIVE TRANSPORT ==========================================================
  0 2r: 1.31E+00 2x: 0.00E+00 2u: 0.00E+00 ir: 3.47E-01 iu: 0.00E+00 rsn:   0
  1 2r: 1.08E+00 2x: 1.23E+04 2u: 9.79E+01 ir: 5.75E-02 iu: 5.00E+00 rsn:   0
  2 2r: 3.46E-01 2x: 1.23E+04 2u: 2.52E+01 ir: 1.83E-02 iu: 9.57E-01 rsn:   0
  3 2r: 8.58E-02 2x: 1.23E+04 2u: 1.82E+01 ir: 4.55E-03 iu: 8.88E-01 rsn:   0
  4 2r: 1.07E-02 2x: 1.23E+04 2u: 8.26E+00 ir: 5.66E-04 iu: 7.28E-01 rsn:   0
  5 2r: 2.38E-04 2x: 1.23E+04 2u: 1.41E+00 ir: 5.12E-05 iu: 4.36E-01 rsn:   0
  6 2r: 3.14E-06 2x: 1.23E+04 2u: 1.32E-01 ir: 3.14E-06 iu: 1.28E-01 rsn:   0
  7 2r: 1.56E-08 2x: 1.23E+04 2u: 8.93E-03 ir: 1.40E-08 iu: 8.93E-03 rsn:   0
  8 2r: 7.02E-09 2x: 1.23E+04 2u: 4.01E-05 ir: 3.49E-10 iu: 4.01E-05 rsn: rtol
 Step     44 Time=  2.50828E-07 Dt=  6.11742E-08 [y] snes_conv_reason:    3
  newton =   8 [     221] linear =     8 [       221] cuts =  0 [   0]
  --> max chng: dcmx=   8.3147E-06  dc/dt=   4.3100E-06 [mol/s]

== REACTIVE TRANSPORT ==========================================================
  0 2r: 1.31E+00 2x: 0.00E+00 2u: 0.00E+00 ir: 3.47E-01 iu: 0.00E+00 rsn:   0
  1 2r: 3.96E-02 2x: 1.23E+04 2u: 1.34E+01 ir: 2.01E-03 iu: 4.22E-01 rsn:   0
  2 2r: 1.05E-03 2x: 1.23E+04 2u: 1.76E+00 ir: 5.55E-05 iu: 6.75E-02 rsn:   0
  3 2r: 8.61E-07 2x: 1.23E+04 2u: 5.00E-02 ir: 4.57E-08 iu: 2.38E-03 rsn:   0
  4 2r: 1.38E-08 2x: 1.23E+04 2u: 4.12E-05 ir: 4.66E-10 iu: 2.84E-06 rsn: stol
 Step     45 Time=  2.81415E-07 Dt=  3.05871E-08 [y] snes_conv_reason:    4
  newton =   4 [     225] linear =     4 [       225] cuts =  0 [   0]
  --> max chng: dcmx=   4.1573E-06  dc/dt=   4.3099E-06 [mol/s]

== REACTIVE TRANSPORT ==========================================================
  0 2r: 1.31E+00 2x: 0.00E+00 2u: 0.00E+00 ir: 3.48E-01 iu: 0.00E+00 rsn:   0
  1 2r: 1.89E-02 2x: 1.23E+04 2u: 7.07E+00 ir: 9.34E-04 iu: 2.03E-01 rsn:   0
  2 2r: 1.38E-04 2x: 1.23E+04 2u: 5.02E-01 ir: 7.31E-06 iu: 1.81E-02 rsn:   0
  3 2r: 2.52E-08 2x: 1.23E+04 2u: 3.81E-03 ir: 6.98E-10 iu: 1.65E-04 rsn:   0
  4 2r: 2.30E-08 2x: 1.23E+04 2u: 2.37E-07 ir: 6.98E-10 iu: 1.37E-08 rsn: stol
 Step     46 Time=  3.02384E-07 Dt=  2.09692E-08 [y] snes_conv_reason:    4
  newton =   4 [     229] linear =     4 [       229] cuts =  0 [   0]
  --> max chng: dcmx=   2.8501E-06  dc/dt=   4.3099E-06 [mol/s]

== AUXILIARY SALINITY ==========================================================

== RICHARDS FLOW ===============================================================
  0 2r: 6.63E+00 2x: 0.00E+00 2u: 0.00E+00 ir: 1.05E+00 iu: 0.00E+00 rsn:   0
  1 2r: 7.09E-04 2x: 3.43E+09 2u: 1.87E+06 ir: 1.18E-04 iu: 2.39E+05 rsn:   0
  2 2r: 1.17E-09 2x: 3.43E+09 2u: 2.39E+02 ir: 7.85E-10 iu: 3.56E+01 rsn: atol
 Step     15 Time=  4.82413E-07 Dt=  1.80029E-07 [y] snes_conv_reason:    2
  newton =   2 [      20] linear =    19 [        97] cuts =  0 [   0]
  --> max chng: dpmx=   2.3888E+05

== REACTIVE TRANSPORT ==========================================================
  0 2r: 1.16E+00 2x: 0.00E+00 2u: 0.00E+00 ir: 3.35E-01 iu: 0.00E+00 rsn:   0
  1 2r: 5.14E-02 2x: 1.23E+04 2u: 1.88E+01 ir: 2.52E-03 iu: 2.82E+00 rsn:   0
  2 2r: 1.95E-03 2x: 1.23E+04 2u: 2.97E+00 ir: 5.99E-04 iu: 7.72E-01 rsn:   0
  3 2r: 1.30E-04 2x: 1.23E+04 2u: 6.10E-01 ir: 1.29E-04 iu: 5.06E-01 rsn:   0
  4 2r: 1.10E-05 2x: 1.23E+04 2u: 1.84E-01 ir: 1.10E-05 iu: 1.81E-01 rsn:   0
  5 2r: 1.01E-07 2x: 1.23E+04 2u: 1.84E-02 ir: 1.00E-07 iu: 1.84E-02 rsn:   0
  6 2r: 7.06E-09 2x: 1.23E+04 2u: 1.72E-04 ir: 3.49E-10 iu: 1.72E-04 rsn: rtol
 Step     47 Time=  3.63558E-07 Dt=  6.11742E-08 [y] snes_conv_reason:    3
  newton =   6 [     235] linear =     6 [       235] cuts =  0 [   0]
  --> max chng: dcmx=   8.2274E-06  dc/dt=   4.2647E-06 [mol/s]

== REACTIVE TRANSPORT ==========================================================
  0 2r: 1.16E+00 2x: 0.00E+00 2u: 0.00E+00 ir: 3.35E-01 iu: 0.00E+00 rsn:   0
  1 2r: 1.65E-02 2x: 1.23E+04 2u: 6.89E+00 ir: 7.75E-04 iu: 3.69E-01 rsn:   0
  2 2r: 8.32E-05 2x: 1.23E+04 2u: 4.16E-01 ir: 4.36E-06 iu: 5.34E-02 rsn:   0
  3 2r: 1.47E-08 2x: 1.23E+04 2u: 3.00E-03 ir: 1.75E-09 iu: 1.48E-03 rsn:   0
  4 2r: 1.41E-08 2x: 1.23E+04 2u: 1.26E-06 ir: 6.98E-10 iu: 1.10E-06 rsn: stol
 Step     48 Time=  3.94145E-07 Dt=  3.05871E-08 [y] snes_conv_reason:    4
  newton =   4 [     239] linear =     4 [       239] cuts =  0 [   0]
  --> max chng: dcmx=   4.1137E-06  dc/dt=   4.2647E-06 [mol/s]

== REACTIVE TRANSPORT ==========================================================
  0 2r: 1.16E+00 2x: 0.00E+00 2u: 0.00E+00 ir: 3.35E-01 iu: 0.00E+00 rsn:   0
  1 2r: 3.01E-02 2x: 1.23E+04 2u: 1.25E+01 ir: 1.39E-03 iu: 5.39E-01 rsn:   0
  2 2r: 4.13E-04 2x: 1.23E+04 2u: 1.21E+00 ir: 2.15E-05 iu: 1.02E-01 rsn:   0
  3 2r: 1.04E-07 2x: 1.23E+04 2u: 1.91E-02 ir: 1.94E-08 iu: 5.60E-03 rsn:   0
  4 2r: 7.00E-09 2x: 1.23E+04 2u: 2.05E-05 ir: 3.49E-10 iu: 1.57E-05 rsn: rtol
 Step     49 Time=  4.55320E-07 Dt=  6.11742E-08 [y] snes_conv_reason:    3
  newton =   4 [     243] linear =     4 [       243] cuts =  0 [   0]
  --> max chng: dcmx=   8.2273E-06  dc/dt=   4.2646E-06 [mol/s]

== REACTIVE TRANSPORT ==========================================================
  0 2r: 1.16E+00 2x: 0.00E+00 2u: 0.00E+00 ir: 3.35E-01 iu: 0.00E+00 rsn:   0
  1 2r: 1.02E-02 2x: 1.23E+04 2u: 4.60E+00 ir: 4.56E-04 iu: 1.55E-01 rsn:   0
  2 2r: 1.87E-05 2x: 1.23E+04 2u: 1.72E-01 ir: 9.65E-07 iu: 1.09E-02 rsn:   0
  3 2r: 2.01E-08 2x: 1.23E+04 2u: 3.34E-04 ir: 4.66E-10 iu: 5.94E-05 rsn:   0
  4 2r: 1.95E-08 2x: 1.23E+04 2u: 2.89E-09 ir: 4.66E-10 iu: 1.76E-09 rsn: stol
 Step     50 Time=  4.82413E-07 Dt=  2.70930E-08 [y] snes_conv_reason:    4
  newton =   4 [     247] linear =     4 [       247] cuts =  0 [   0]
  --> max chng: dcmx=   3.6437E-06  dc/dt=   4.2646E-06 [mol/s]

== AUXILIARY SALINITY ==========================================================

== RICHARDS FLOW ===============================================================
  0 2r: 4.79E+00 2x: 0.00E+00 2u: 0.00E+00 ir: 6.30E-01 iu: 0.00E+00 rsn:   0
  1 2r: 5.20E-04 2x: 3.43E+09 2u: 2.00E+06 ir: 8.24E-05 iu: 2.64E+05 rsn:   0
  2 2r: 8.55E-10 2x: 3.43E+09 2u: 2.44E+02 ir: 3.64E-10 iu: 3.79E+01 rsn: atol
 Step     16 Time=  7.60836E-07 Dt=  2.78424E-07 [y] snes_conv_reason:    2
  newton =   2 [      22] linear =    22 [       119] cuts =  0 [   0]
  --> max chng: dpmx=   2.6417E+05

== REACTIVE TRANSPORT ==========================================================
  0 2r: 1.36E+00 2x: 0.00E+00 2u: 0.00E+00 ir: 3.11E-01 iu: 0.00E+00 rsn:   0
  1 2r: 1.87E+00 2x: 1.23E+04 2u: 6.20E+01 ir: 9.89E-02 iu: 2.98E+00 rsn:   0
  2 2r: 4.53E-01 2x: 1.23E+04 2u: 1.79E+01 ir: 2.40E-02 iu: 7.98E-01 rsn:   0
  3 2r: 5.31E-02 2x: 1.23E+04 2u: 7.75E+00 ir: 2.82E-03 iu: 5.52E-01 rsn:   0
  4 2r: 1.01E-03 2x: 1.23E+04 2u: 1.19E+00 ir: 5.37E-05 iu: 2.22E-01 rsn:   0
  5 2r: 4.04E-07 2x: 1.23E+04 2u: 3.67E-02 ir: 1.19E-07 iu: 2.85E-02 rsn:   0
  6 2r: 3.55E-09 2x: 1.23E+04 2u: 4.15E-04 ir: 1.75E-10 iu: 4.15E-04 rsn: rtol
 Step     51 Time=  6.04761E-07 Dt=  1.22348E-07 [y] snes_conv_reason:    3
  newton =   6 [     253] linear =     6 [       253] cuts =  0 [   0]
  --> max chng: dcmx=   1.6279E-05  dc/dt=   4.2192E-06 [mol/s]

== REACTIVE TRANSPORT ==========================================================
  0 2r: 1.36E+00 2x: 0.00E+00 2u: 0.00E+00 ir: 3.11E-01 iu: 0.00E+00 rsn:   0
  1 2r: 1.63E-01 2x: 1.23E+04 2u: 1.20E+01 ir: 8.64E-03 iu: 3.74E-01 rsn:   0
  2 2r: 3.55E-03 2x: 1.23E+04 2u: 1.39E+00 ir: 1.88E-04 iu: 5.48E-02 rsn:   0
  3 2r: 1.78E-06 2x: 1.23E+04 2u: 3.06E-02 ir: 9.45E-08 iu: 1.56E-03 rsn:   0
  4 2r: 7.13E-09 2x: 1.23E+04 2u: 1.54E-05 ir: 3.49E-10 iu: 1.22E-06 rsn: rtol
 Step     52 Time=  6.65935E-07 Dt=  6.11742E-08 [y] snes_conv_reason:    3
  newton =   4 [     257] linear =     4 [       257] cuts =  0 [   0]
  --> max chng: dcmx=   8.1396E-06  dc/dt=   4.2192E-06 [mol/s]

== REACTIVE TRANSPORT ==========================================================
  0 2r: 1.36E+00 2x: 0.00E+00 2u: 0.00E+00 ir: 3.11E-01 iu: 0.00E+00 rsn:   0
  1 2r: 1.94E-01 2x: 1.23E+04 2u: 1.51E+01 ir: 1.03E-02 iu: 4.23E-01 rsn:   0
  2 2r: 5.50E-03 2x: 1.23E+04 2u: 1.91E+00 ir: 2.92E-04 iu: 6.77E-02 rsn:   0
  3 2r: 4.78E-06 2x: 1.23E+04 2u: 5.35E-02 ir: 2.54E-07 iu: 2.40E-03 rsn:   0
  4 2r: 5.85E-09 2x: 1.23E+04 2u: 4.62E-05 ir: 1.75E-10 iu: 2.88E-06 rsn: rtol
 Step     53 Time=  7.60836E-07 Dt=  9.49010E-08 [y] snes_conv_reason:    3
  newton =   4 [     261] linear =     4 [       261] cuts =  0 [   0]
  --> max chng: dcmx=   1.2627E-05  dc/dt=   4.2191E-06 [mol/s]

== AUXILIARY SALINITY ==========================================================

== RICHARDS FLOW ===============================================================
  0 2r: 3.34E+00 2x: 0.00E+00 2u: 0.00E+00 ir: 4.13E-01 iu: 0.00E+00 rsn:   0
  1 2r: 3.02E-04 2x: 3.43E+09 2u: 1.93E+06 ir: 4.61E-05 iu: 2.53E+05 rsn: rtol
 Step     17 Time=  1.16353E-06 Dt=  4.02697E-07 [y] snes_conv_reason:    3
  newton =   1 [      23] linear =    12 [       131] cuts =  0 [   0]
  --> max chng: dpmx=   2.5294E+05

== REACTIVE TRANSPORT ==========================================================
  0 2r: 1.71E+00 2x: 0.00E+00 2u: 0.00E+00 ir: 2.81E-01 iu: 0.00E+00 rsn:   0
  1 2r: 8.59E-01 2x: 1.22E+04 2u: 3.27E+01 ir: 4.56E-02 iu: 2.03E+00 rsn:   0
  2 2r: 8.94E-02 2x: 1.22E+04 2u: 7.31E+00 ir: 4.74E-03 iu: 6.01E-01 rsn:   0
  3 2r: 1.29E-03 2x: 1.22E+04 2u: 9.42E-01 ir: 6.84E-05 iu: 2.72E-01 rsn:   0
  4 2r: 3.96E-07 2x: 1.22E+04 2u: 4.67E-02 ir: 2.81E-07 iu: 4.44E-02 rsn:   0
  5 2r: 2.95E-09 2x: 1.22E+04 2u: 1.02E-03 ir: 1.43E-10 iu: 1.02E-03 rsn: rtol
 Step     54 Time=  9.50638E-07 Dt=  1.89802E-07 [y] snes_conv_reason:    3
  newton =   5 [     266] linear =     5 [       266] cuts =  0 [   0]
  --> max chng: dcmx=   2.5336E-05  dc/dt=   4.2328E-06 [mol/s]

== REACTIVE TRANSPORT ==========================================================
  0 2r: 1.71E+00 2x: 0.00E+00 2u: 0.00E+00 ir: 2.81E-01 iu: 0.00E+00 rsn:   0
  1 2r: 4.46E-01 2x: 1.22E+04 2u: 2.32E+01 ir: 2.36E-02 iu: 7.51E-01 rsn:   0
  2 2r: 2.13E-02 2x: 1.22E+04 2u: 3.71E+00 ir: 1.13E-03 iu: 1.74E-01 rsn:   0
  3 2r: 5.55E-05 2x: 1.22E+04 2u: 1.74E-01 ir: 2.95E-06 iu: 1.70E-02 rsn:   0
  4 2r: 2.56E-09 2x: 1.22E+04 2u: 4.57E-04 ir: 5.82E-11 iu: 1.45E-04 rsn: rtol
 Step     55 Time=  1.16353E-06 Dt=  2.12895E-07 [y] snes_conv_reason:    3
  newton =   4 [     270] linear =     4 [       270] cuts =  0 [   0]
  --> max chng: dcmx=   2.8417E-05  dc/dt=   4.2326E-06 [mol/s]

== AUXILIARY SALINITY ==========================================================

== RICHARDS FLOW ===============================================================
  0 2r: 2.24E+00 2x: 0.00E+00 2u: 0.00E+00 ir: 2.69E-01 iu: 0.00E+00 rsn:   0
  1 2r: 1.52E-04 2x: 3.43E+09 2u: 1.84E+06 ir: 1.89E-05 iu: 2.14E+05 rsn: rtol
 Step     18 Time=  1.76290E-06 Dt=  5.99365E-07 [y] snes_conv_reason:    3
  newton =   1 [      24] linear =    14 [       145] cuts =  0 [   0]
  --> max chng: dpmx=   2.1425E+05

== REACTIVE TRANSPORT ==========================================================
  0 2r: 2.82E+00 2x: 0.00E+00 2u: 0.00E+00 ir: 2.46E-01 iu: 0.00E+00 rsn:   0
  1 2r: 2.75E+00 2x: 1.22E+04 2u: 5.04E+01 ir: 1.46E-01 iu: 3.61E+00 rsn:   0
  2 2r: 4.54E-01 2x: 1.22E+04 2u: 1.30E+01 ir: 2.41E-02 iu: 8.75E-01 rsn:   0
  3 2r: 1.96E-02 2x: 1.22E+04 2u: 2.94E+00 ir: 1.04E-03 iu: 7.00E-01 rsn:   0
  4 2r: 7.97E-05 2x: 1.22E+04 2u: 4.50E-01 ir: 6.83E-05 iu: 3.96E-01 rsn:   0
  5 2r: 3.39E-06 2x: 1.22E+04 2u: 1.03E-01 ir: 3.39E-06 iu: 1.03E-01 rsn:   0
  6 2r: 9.61E-09 2x: 1.22E+04 2u: 5.64E-03 ir: 9.52E-09 iu: 5.64E-03 rsn: rtol
 Step     56 Time=  1.58932E-06 Dt=  4.25790E-07 [y] snes_conv_reason:    3
  newton =   6 [     276] linear =     6 [       276] cuts =  0 [   0]
  --> max chng: dcmx=   5.7354E-05  dc/dt=   4.2713E-06 [mol/s]

== REACTIVE TRANSPORT ==========================================================
  0 2r: 2.82E+00 2x: 0.00E+00 2u: 0.00E+00 ir: 2.46E-01 iu: 0.00E+00 rsn:   0
  1 2r: 3.27E-01 2x: 1.22E+04 2u: 1.11E+01 ir: 1.73E-02 iu: 3.19E-01 rsn:   0
  2 2r: 3.69E-03 2x: 1.22E+04 2u: 9.17E-01 ir: 1.96E-04 iu: 4.13E-02 rsn:   0
  3 2r: 4.84E-07 2x: 1.22E+04 2u: 9.32E-03 ir: 2.57E-08 iu: 8.76E-04 rsn:   0
  4 2r: 2.92E-09 2x: 1.22E+04 2u: 1.24E-06 ir: 1.16E-10 iu: 3.84E-07 rsn: rtol
 Step     57 Time=  1.76290E-06 Dt=  1.73575E-07 [y] snes_conv_reason:    3
  newton =   4 [     280] linear =     4 [       280] cuts =  0 [   0]
  --> max chng: dcmx=   2.3380E-05  dc/dt=   4.2712E-06 [mol/s]

== AUXILIARY SALINITY ==========================================================

== RICHARDS FLOW ===============================================================
  0 2r: 1.44E+00 2x: 0.00E+00 2u: 0.00E+00 ir: 1.48E-01 iu: 0.00E+00 rsn:   0
  1 2r: 9.08E-05 2x: 3.43E+09 2u: 1.98E+06 ir: 1.69E-05 iu: 2.11E+05 rsn: rtol
 Step     19 Time=  2.76194E-06 Dt=  9.99045E-07 [y] snes_conv_reason:    3
  newton =   1 [      25] linear =    17 [       162] cuts =  0 [   0]
  --> max chng: dpmx=   2.1106E+05

== REACTIVE TRANSPORT ==========================================================
  0 2r: 4.01E+00 2x: 0.00E+00 2u: 0.00E+00 ir: 2.13E-01 iu: 0.00E+00 rsn:   0
  1 2r: 1.28E+00 2x: 1.22E+04 2u: 2.42E+01 ir: 6.79E-02 iu: 2.27E+00 rsn:   0
  2 2r: 6.50E-02 2x: 1.22E+04 2u: 4.02E+00 ir: 3.45E-03 iu: 6.62E-01 rsn:   0
  3 2r: 1.94E-04 2x: 1.22E+04 2u: 4.56E-01 ir: 1.98E-05 iu: 3.45E-01 rsn:   0
  4 2r: 7.27E-07 2x: 1.22E+04 2u: 7.88E-02 ir: 7.24E-07 iu: 7.49E-02 rsn:   0
  5 2r: 1.81E-09 2x: 1.22E+04 2u: 2.97E-03 ir: 1.07E-09 iu: 2.95E-03 rsn: rtol
 Step     58 Time=  2.11005E-06 Dt=  3.47150E-07 [y] snes_conv_reason:    3
  newton =   5 [     285] linear =     5 [       285] cuts =  0 [   0]
  --> max chng: dcmx=   4.7127E-05  dc/dt=   4.3047E-06 [mol/s]

== REACTIVE TRANSPORT ==========================================================
  0 2r: 4.01E+00 2x: 0.00E+00 2u: 0.00E+00 ir: 2.12E-01 iu: 0.00E+00 rsn:   0
  1 2r: 1.62E+00 2x: 1.22E+04 2u: 3.58E+01 ir: 8.59E-02 iu: 1.30E+00 rsn:   0
  2 2r: 1.11E-01 2x: 1.22E+04 2u: 7.04E+00 ir: 5.89E-03 iu: 3.74E-01 rsn:   0
  3 2r: 6.30E-04 2x: 1.22E+04 2u: 5.74E-01 ir: 3.34E-05 iu: 9.03E-02 rsn:   0
  4 2r: 2.08E-08 2x: 1.22E+04 2u: 7.60E-03 ir: 2.82E-09 iu: 4.33E-03 rsn: rtol
 Step     59 Time=  2.76194E-06 Dt=  6.51896E-07 [y] snes_conv_reason:    3
  newton =   4 [     289] linear =     4 [       289] cuts =  0 [   0]
  --> max chng: dcmx=   8.8486E-05  dc/dt=   4.3042E-06 [mol/s]

== AUXILIARY SALINITY ==========================================================

== RICHARDS FLOW ===============================================================
  0 2r: 9.14E-01 2x: 0.00E+00 2u: 0.00E+00 ir: 9.57E-02 iu: 0.00E+00 rsn:   0
  1 2r: 7.50E-05 2x: 3.43E+09 2u: 2.28E+06 ir: 1.23E-05 iu: 2.20E+05 rsn: rtol
 Step     20 Time=  4.44485E-06 Dt=  1.68290E-06 [y] snes_conv_reason:    3
  newton =   1 [      26] linear =    21 [       183] cuts =  0 [   0]
  --> max chng: dpmx=   2.2007E+05

== REACTIVE TRANSPORT ==========================================================
  0 2r: 2.31E+00 2x: 0.00E+00 2u: 0.00E+00 ir: 1.82E-01 iu: 0.00E+00 rsn:   0
  1 2r: 5.37E-01 2x: 1.22E+04 2u: 5.58E+01 ir: 2.83E-02 iu: 5.00E+00 rsn:   0
  2 2r: 1.91E-02 2x: 1.22E+04 2u: 1.37E+01 ir: 2.72E-03 iu: 9.38E-01 rsn:   0
  3 2r: 1.03E-03 2x: 1.22E+04 2u: 3.36E+00 ir: 8.83E-04 iu: 8.43E-01 rsn:   0
  4 2r: 2.59E-04 2x: 1.22E+04 2u: 1.11E+00 ir: 2.29E-04 iu: 6.34E-01 rsn:   0
  5 2r: 3.55E-05 2x: 1.22E+04 2u: 4.42E-01 ir: 3.22E-05 iu: 3.11E-01 rsn:   0
  6 2r: 1.00E-06 2x: 1.22E+04 2u: 7.71E-02 ir: 9.38E-07 iu: 5.95E-02 rsn:   0
  7 2r: 9.70E-10 2x: 1.22E+04 2u: 2.21E-03 ir: 8.62E-10 iu: 1.84E-03 rsn: rtol
 Step     60 Time=  4.06574E-06 Dt=  1.30379E-06 [y] snes_conv_reason:    3
  newton =   7 [     296] linear =     9 [       298] cuts =  0 [   0]
  --> max chng: dcmx=   1.7715E-04  dc/dt=   4.3085E-06 [mol/s]

== REACTIVE TRANSPORT ==========================================================
  0 2r: 2.31E+00 2x: 0.00E+00 2u: 0.00E+00 ir: 1.82E-01 iu: 0.00E+00 rsn:   0
  1 2r: 9.62E-02 2x: 1.22E+04 2u: 9.25E+00 ir: 5.07E-03 iu: 2.61E-01 rsn:   0
  2 2r: 1.77E-04 2x: 1.22E+04 2u: 5.73E-01 ir: 9.31E-06 iu: 2.87E-02 rsn:   0
  3 2r: 1.61E-09 2x: 1.22E+04 2u: 3.44E-03 ir: 1.13E-10 iu: 4.21E-04 rsn: rtol
 Step     61 Time=  4.44485E-06 Dt=  3.79110E-07 [y] snes_conv_reason:    3
  newton =   3 [     299] linear =     3 [       301] cuts =  0 [   0]
  --> max chng: dcmx=   5.1507E-05  dc/dt=   4.3082E-06 [mol/s]

== AUXILIARY SALINITY ==========================================================

== RICHARDS FLOW ===============================================================
  0 2r: 6.15E-01 2x: 0.00E+00 2u: 0.00E+00 ir: 6.24E-02 iu: 0.00E+00 rsn:   0
  1 2r: 1.16E-04 2x: 3.43E+09 2u: 2.65E+06 ir: 1.03E-04 iu: 2.31E+05 rsn:   0
  2 2r: 6.61E-10 2x: 3.43E+09 2u: 7.70E+02 ir: 2.47E-10 iu: 4.80E+01 rsn: atol
 Step     21 Time=  7.19812E-06 Dt=  2.75327E-06 [y] snes_conv_reason:    2
  newton =   2 [      28] linear =    59 [       242] cuts =  0 [   0]
  --> max chng: dpmx=   2.3118E+05

== REACTIVE TRANSPORT ==========================================================
  0 2r: 1.01E+00 2x: 0.00E+00 2u: 0.00E+00 ir: 1.79E-01 iu: 0.00E+00 rsn:   0
  1 2r: 2.20E-02 2x: 1.22E+04 2u: 1.81E+01 ir: 1.66E-03 iu: 2.07E+00 rsn:   0
  2 2r: 2.54E-04 2x: 1.22E+04 2u: 2.47E+00 ir: 1.83E-04 iu: 6.12E-01 rsn:   0
  3 2r: 2.40E-05 2x: 1.22E+04 2u: 3.57E-01 ir: 2.37E-05 iu: 2.84E-01 rsn:   0
  4 2r: 5.71E-07 2x: 1.22E+04 2u: 4.98E-02 ir: 5.71E-07 iu: 4.89E-02 rsn:   0
  5 2r: 8.11E-10 2x: 1.22E+04 2u: 1.23E-03 ir: 3.52E-10 iu: 1.23E-03 rsn: rtol
 Step     62 Time=  5.20307E-06 Dt=  7.58220E-07 [y] snes_conv_reason:    3
  newton =   5 [     304] linear =     6 [       307] cuts =  0 [   0]
  --> max chng: dcmx=   1.0326E-04  dc/dt=   4.3183E-06 [mol/s]

== REACTIVE TRANSPORT ==========================================================
  0 2r: 1.01E+00 2x: 0.00E+00 2u: 0.00E+00 ir: 1.79E-01 iu: 0.00E+00 rsn:   0
  1 2r: 3.99E-02 2x: 1.22E+04 2u: 3.30E+01 ir: 2.93E-03 iu: 1.47E+00 rsn:   0
  2 2r: 6.47E-04 2x: 1.22E+04 2u: 6.37E+00 ir: 5.96E-05 iu: 4.31E-01 rsn:   0
  3 2r: 3.60E-06 2x: 1.22E+04 2u: 5.99E-01 ir: 2.86E-06 iu: 1.25E-01 rsn:   0
  4 2r: 7.61E-09 2x: 1.22E+04 2u: 1.76E-02 ir: 7.46E-09 iu: 8.43E-03 rsn: rtol
 Step     63 Time=  6.71951E-06 Dt=  1.51644E-06 [y] snes_conv_reason:    3
  newton =   4 [     308] linear =     6 [       313] cuts =  0 [   0]
  --> max chng: dcmx=   2.0644E-04  dc/dt=   4.3169E-06 [mol/s]

== REACTIVE TRANSPORT ==========================================================
  0 2r: 1.01E+00 2x: 0.00E+00 2u: 0.00E+00 ir: 1.79E-01 iu: 0.00E+00 rsn:   0
  1 2r: 9.69E-03 2x: 1.22E+04 2u: 7.20E+00 ir: 6.50E-04 iu: 2.16E-01 rsn:   0
  2 2r: 9.76E-06 2x: 1.22E+04 2u: 3.76E-01 ir: 8.68E-07 iu: 2.03E-02 rsn:   0
  3 2r: 1.00E-09 2x: 1.22E+04 2u: 1.55E-03 ir: 2.91E-11 iu: 2.09E-04 rsn: rtol
 Step     64 Time=  7.19812E-06 Dt=  4.78610E-07 [y] snes_conv_reason:    3
  newton =   3 [     311] linear =     3 [       316] cuts =  0 [   0]
  --> max chng: dcmx=   6.5150E-05  dc/dt=   4.3164E-06 [mol/s]

== AUXILIARY SALINITY ==========================================================

== RICHARDS FLOW ===============================================================
  0 2r: 4.30E-01 2x: 0.00E+00 2u: 0.00E+00 ir: 3.77E-02 iu: 0.00E+00 rsn:   0
  1 2r: 7.86E-05 2x: 3.43E+09 2u: 3.05E+06 ir: 6.69E-05 iu: 2.25E+05 rsn:   0
  2 2r: 8.87E-10 2x: 3.43E+09 2u: 9.82E+02 ir: 2.20E-10 iu: 3.05E+01 rsn: atol
 Step     22 Time=  1.15521E-05 Dt=  4.35398E-06 [y] snes_conv_reason:    2
  newton =   2 [      30] linear =    67 [       309] cuts =  0 [   0]
  --> max chng: dpmx=   2.2467E+05

== REACTIVE TRANSPORT ==========================================================
  0 2r: 1.00E+00 2x: 0.00E+00 2u: 0.00E+00 ir: 1.76E-01 iu: 0.00E+00 rsn:   0
  1 2r: 6.30E-02 2x: 1.22E+04 2u: 5.48E+01 ir: 4.33E-03 iu: 4.12E+00 rsn:   0
  2 2r: 2.24E-03 2x: 1.22E+04 2u: 1.35E+01 ir: 7.36E-04 iu: 9.17E-01 rsn:   0
  3 2r: 3.49E-04 2x: 1.22E+04 2u: 3.19E+00 ir: 2.28E-04 iu: 7.93E-01 rsn:   0
  4 2r: 6.00E-05 2x: 1.22E+04 2u: 8.66E-01 ir: 5.20E-05 iu: 5.42E-01 rsn:   0
  5 2r: 5.19E-06 2x: 1.22E+04 2u: 2.29E-01 ir: 5.15E-06 iu: 2.12E-01 rsn:   0
  6 2r: 6.65E-08 2x: 1.22E+04 2u: 2.61E-02 ir: 6.65E-08 iu: 2.60E-02 rsn:   0
  7 2r: 1.83E-10 2x: 1.22E+04 2u: 3.45E-04 ir: 1.15E-11 iu: 3.45E-04 rsn: rtol
 Step     65 Time=  1.02310E-05 Dt=  3.03288E-06 [y] snes_conv_reason:    3
  newton =   7 [     318] linear =    10 [       326] cuts =  0 [   0]
  --> max chng: dcmx=   4.1464E-04  dc/dt=   4.3352E-06 [mol/s]

== REACTIVE TRANSPORT ==========================================================
  0 2r: 1.00E+00 2x: 0.00E+00 2u: 0.00E+00 ir: 1.75E-01 iu: 0.00E+00 rsn:   0
  1 2r: 1.98E-02 2x: 1.22E+04 2u: 1.41E+01 ir: 1.18E-03 iu: 4.16E-01 rsn:   0
  2 2r: 5.43E-05 2x: 1.22E+04 2u: 1.29E+00 ir: 4.77E-06 iu: 6.58E-02 rsn:   0
  3 2r: 1.87E-09 2x: 1.22E+04 2u: 1.77E-02 ir: 8.35E-10 iu: 2.26E-03 rsn: rtol
 Step     66 Time=  1.15521E-05 Dt=  1.32110E-06 [y] snes_conv_reason:    3
  newton =   3 [     321] linear =     6 [       332] cuts =  0 [   0]
  --> max chng: dcmx=   1.8056E-04  dc/dt=   4.3339E-06 [mol/s]

== AUXILIARY SALINITY ==========================================================

== RICHARDS FLOW ===============================================================
  0 2r: 3.09E-01 2x: 0.00E+00 2u: 0.00E+00 ir: 2.65E-02 iu: 0.00E+00 rsn:   0
  1 2r: 3.17E-05 2x: 3.43E+09 2u: 3.60E+06 ir: 9.11E-06 iu: 2.27E+05 rsn:   0
  2 2r: 4.24E-09 2x: 3.43E+09 2u: 7.56E+02 ir: 2.86E-09 iu: 3.75E+01 rsn: atol
 Step     23 Time=  1.85740E-05 Dt=  7.02190E-06 [y] snes_conv_reason:    2
  newton =   2 [      32] linear =    76 [       385] cuts =  0 [   0]
  --> max chng: dpmx=   2.2675E+05

== REACTIVE TRANSPORT ==========================================================
  0 2r: 9.91E-01 2x: 0.00E+00 2u: 0.00E+00 ir: 1.71E-01 iu: 0.00E+00 rsn:   0
  1 2r: 3.55E-02 2x: 1.22E+04 2u: 2.73E+01 ir: 1.98E-03 iu: 1.75E+00 rsn:   0
  2 2r: 3.22E-04 2x: 1.22E+04 2u: 4.42E+00 ir: 1.27E-04 iu: 5.23E-01 rsn:   0
  3 2r: 1.32E-05 2x: 1.22E+04 2u: 4.01E-01 ir: 1.16E-05 iu: 1.95E-01 rsn:   0
  4 2r: 1.27E-07 2x: 1.22E+04 2u: 2.62E-02 ir: 1.25E-07 iu: 2.18E-02 rsn:   0
  5 2r: 1.92E-10 2x: 1.22E+04 2u: 2.47E-04 ir: 1.51E-11 iu: 2.41E-04 rsn: rtol
 Step     67 Time=  1.41943E-05 Dt=  2.64220E-06 [y] snes_conv_reason:    3
  newton =   5 [     326] linear =     8 [       340] cuts =  0 [   0]
  --> max chng: dcmx=   3.5420E-04  dc/dt=   4.2508E-06 [mol/s]

== REACTIVE TRANSPORT ==========================================================
  0 2r: 9.91E-01 2x: 0.00E+00 2u: 0.00E+00 ir: 1.71E-01 iu: 0.00E+00 rsn:   0
  1 2r: 5.25E-02 2x: 1.22E+04 2u: 3.94E+01 ir: 2.75E-03 iu: 1.23E+00 rsn:   0
  2 2r: 6.17E-04 2x: 1.22E+04 2u: 7.75E+00 ir: 5.18E-05 iu: 3.49E-01 rsn:   0
  3 2r: 1.40E-06 2x: 1.22E+04 2u: 6.68E-01 ir: 8.07E-07 iu: 7.72E-02 rsn:   0
  4 2r: 5.90E-10 2x: 1.22E+04 2u: 1.03E-02 ir: 5.03E-10 iu: 3.14E-03 rsn: rtol
[...]
  0 2r: 2.41E-05 2x: 0.00E+00 2u: 0.00E+00 ir: 8.81E-06 iu: 0.00E+00 rsn:   0
  1 2r: 1.38E-09 2x: 3.19E+09 2u: 7.83E+02 ir: 6.68E-10 iu: 1.36E+01 rsn: atol
 Step   1541 Time=  1.20375E+02 Dt=  6.25000E-02 [y] snes_conv_reason:    2
  newton =   1 [    2284] linear =   295 [    992493] cuts =  0 [ 381]
  --> max chng: dpmx=   1.3618E+01

== REACTIVE TRANSPORT ==========================================================
  0 2r: 6.85E-03 2x: 0.00E+00 2u: 0.00E+00 ir: 1.13E-03 iu: 0.00E+00 rsn:   0
  1 2r: 4.19E-06 2x: 9.91E+03 2u: 4.45E-01 ir: 1.70E-06 iu: 1.93E-02 rsn:   0
  2 2r: 9.92E-12 2x: 9.91E+03 2u: 1.17E-03 ir: 5.12E-12 iu: 1.83E-04 rsn: rtol
 Step   1623 Time=  1.20375E+02 Dt=  6.25000E-02 [y] snes_conv_reason:    3
  newton =   2 [    4806] linear =     8 [     18115] cuts =  0 [   0]
  --> max chng: dcmx=   3.9129E-03  dc/dt=   1.9853E-09 [mol/s]

== AUXILIARY SALINITY ==========================================================

== RICHARDS FLOW ===============================================================
  0 2r: 2.41E-05 2x: 0.00E+00 2u: 0.00E+00 ir: 8.71E-06 iu: 0.00E+00 rsn:   0
  1 2r: 1.25E-09 2x: 3.19E+09 2u: 1.21E+03 ir: 6.68E-10 iu: 2.15E+01 rsn: atol
 Step   1542 Time=  1.20500E+02 Dt=  1.25000E-01 [y] snes_conv_reason:    2
  newton =   1 [    2285] linear =   526 [    993019] cuts =  0 [ 381]
  --> max chng: dpmx=   2.1509E+01

== REACTIVE TRANSPORT ==========================================================
  0 2r: 6.84E-03 2x: 0.00E+00 2u: 0.00E+00 ir: 1.12E-03 iu: 0.00E+00 rsn:   0
  1 2r: 8.25E-06 2x: 9.91E+03 2u: 8.93E-01 ir: 3.26E-06 iu: 3.92E-02 rsn:   0
  2 2r: 7.28E-11 2x: 9.91E+03 2u: 4.70E-03 ir: 3.52E-11 iu: 7.48E-04 rsn:   0
  3 2r: 8.33E-15 2x: 9.91E+03 2u: 6.23E-07 ir: 6.11E-16 iu: 2.80E-07 rsn: rtol
 Step   1624 Time=  1.20500E+02 Dt=  1.25000E-01 [y] snes_conv_reason:    3
  newton =   3 [    4809] linear =    16 [     18131] cuts =  0 [   0]
  --> max chng: dcmx=   7.5360E-03  dc/dt=   1.9117E-09 [mol/s]

== AUXILIARY SALINITY ==========================================================

== RICHARDS FLOW ===============================================================
  0 2r: 4.77E-05 2x: 0.00E+00 2u: 0.00E+00 ir: 1.67E-05 iu: 0.00E+00 rsn:   0
  1 2r: 2.97E-09 2x: 3.19E+09 2u: 1.91E+03 ir: 1.87E-09 iu: 2.87E+01 rsn: atol
 Step   1543 Time=  1.20750E+02 Dt=  2.50000E-01 [y] snes_conv_reason:    2
  newton =   1 [    2286] linear =   513 [    993532] cuts =  0 [ 381]
  --> max chng: dpmx=   2.8657E+01

== REACTIVE TRANSPORT ==========================================================
  0 2r: 6.82E-03 2x: 0.00E+00 2u: 0.00E+00 ir: 1.09E-03 iu: 0.00E+00 rsn:   0
  1 2r: 1.60E-05 2x: 9.90E+03 2u: 1.80E+00 ir: 5.96E-06 iu: 8.11E-02 rsn:   0
  2 2r: 5.18E-10 2x: 9.90E+03 2u: 1.91E-02 ir: 2.48E-10 iu: 3.12E-03 rsn:   0
  3 2r: 1.93E-14 2x: 9.90E+03 2u: 1.07E-05 ir: 1.12E-14 iu: 4.86E-06 rsn: rtol
 Step   1625 Time=  1.20750E+02 Dt=  2.50000E-01 [y] snes_conv_reason:    3
  newton =   3 [    4812] linear =    21 [     18152] cuts =  0 [   0]
  --> max chng: dcmx=   1.3996E-02  dc/dt=   1.7752E-09 [mol/s]

== AUXILIARY SALINITY ==========================================================

== RICHARDS FLOW ===============================================================
  0 2r: 9.34E-05 2x: 0.00E+00 2u: 0.00E+00 ir: 3.10E-05 iu: 0.00E+00 rsn:   0
  1 2r: 5.99E-08 2x: 3.19E+09 2u: 2.19E+03 ir: 4.19E-08 iu: 4.83E+01 rsn: atol
 Step   1544 Time=  1.21000E+02 Dt=  2.50000E-01 [y] snes_conv_reason:    2
  newton =   1 [    2287] linear =   410 [    993942] cuts =  0 [ 381]
  --> max chng: dpmx=   4.8278E+01

== REACTIVE TRANSPORT ==========================================================
  0 2r: 6.80E-03 2x: 0.00E+00 2u: 0.00E+00 ir: 1.04E-03 iu: 0.00E+00 rsn:   0
  1 2r: 1.56E-05 2x: 9.90E+03 2u: 1.79E+00 ir: 5.48E-06 iu: 8.11E-02 rsn:   0
  2 2r: 4.79E-10 2x: 9.90E+03 2u: 1.90E-02 ir: 2.52E-10 iu: 3.11E-03 rsn:   0
  3 2r: 1.92E-14 2x: 9.90E+03 2u: 1.07E-05 ir: 1.12E-14 iu: 4.86E-06 rsn: rtol
 Step   1626 Time=  1.21000E+02 Dt=  2.50000E-01 [y] snes_conv_reason:    3
  newton =   3 [    4815] linear =    21 [     18173] cuts =  0 [   0]
  --> max chng: dcmx=   1.3328E-02  dc/dt=   1.6905E-09 [mol/s]

== AUXILIARY SALINITY ==========================================================

== RICHARDS FLOW ===============================================================
  0 2r: 9.22E-05 2x: 0.00E+00 2u: 0.00E+00 ir: 3.02E-05 iu: 0.00E+00 rsn:   0
  1 2r: 5.99E-08 2x: 3.19E+09 2u: 2.90E+03 ir: 4.20E-08 iu: 4.85E+01 rsn: atol
 Step   1545 Time=  1.21500E+02 Dt=  5.00000E-01 [y] snes_conv_reason:    2
  newton =   1 [    2288] linear =   451 [    994393] cuts =  0 [ 381]
  --> max chng: dpmx=   4.8493E+01

== REACTIVE TRANSPORT ==========================================================
  0 2r: 6.77E-03 2x: 0.00E+00 2u: 0.00E+00 ir: 9.93E-04 iu: 0.00E+00 rsn:   0
  1 2r: 3.01E-05 2x: 9.90E+03 2u: 3.63E+00 ir: 9.82E-06 iu: 1.73E-01 rsn:   0
  2 2r: 3.38E-09 2x: 9.90E+03 2u: 7.88E-02 ir: 2.02E-09 iu: 1.34E-02 rsn:   0
  3 2r: 6.43E-15 2x: 9.90E+03 2u: 1.99E-04 ir: 5.76E-16 iu: 9.03E-05 rsn: rtol
 Step   1627 Time=  1.21500E+02 Dt=  5.00000E-01 [y] snes_conv_reason:    3
  newton =   3 [    4818] linear =    35 [     18208] cuts =  0 [   0]
  --> max chng: dcmx=   2.2964E-02  dc/dt=   1.4563E-09 [mol/s]

== AUXILIARY SALINITY ==========================================================

== RICHARDS FLOW ===============================================================
  0 2r: 1.77E-04 2x: 0.00E+00 2u: 0.00E+00 ir: 5.52E-05 iu: 0.00E+00 rsn:   0
  1 2r: 2.45E-07 2x: 3.19E+09 2u: 3.94E+03 ir: 9.87E-08 iu: 9.85E+01 rsn: atol
 Step   1546 Time=  1.22000E+02 Dt=  5.00000E-01 [y] snes_conv_reason:    2
  newton =   1 [    2289] linear =   362 [    994755] cuts =  0 [ 381]
  --> max chng: dpmx=   9.8540E+01

== REACTIVE TRANSPORT ==========================================================
  0 2r: 6.74E-03 2x: 0.00E+00 2u: 0.00E+00 ir: 9.07E-04 iu: 0.00E+00 rsn:   0
  1 2r: 2.91E-05 2x: 9.90E+03 2u: 3.61E+00 ir: 1.01E-05 iu: 1.72E-01 rsn:   0
  2 2r: 3.16E-09 2x: 9.90E+03 2u: 7.82E-02 ir: 2.02E-09 iu: 1.32E-02 rsn:   0
  3 2r: 7.04E-15 2x: 9.90E+03 2u: 1.98E-04 ir: 1.28E-15 iu: 8.80E-05 rsn: rtol
 Step   1628 Time=  1.22000E+02 Dt=  5.00000E-01 [y] snes_conv_reason:    3
  newton =   3 [    4821] linear =    34 [     18242] cuts =  0 [   0]
  --> max chng: dcmx=   2.0781E-02  dc/dt=   1.3179E-09 [mol/s]

== AUXILIARY SALINITY ==========================================================

== RICHARDS FLOW ===============================================================
  0 2r: 1.74E-04 2x: 0.00E+00 2u: 0.00E+00 ir: 5.07E-05 iu: 0.00E+00 rsn:   0
  1 2r: 2.09E-07 2x: 3.19E+09 2u: 4.82E+03 ir: 8.80E-08 iu: 9.94E+01 rsn: atol
 Step   1547 Time=  1.23000E+02 Dt=  1.00000E+00 [y] snes_conv_reason:    2
  newton =   1 [    2290] linear =   582 [    995337] cuts =  0 [ 381]
  --> max chng: dpmx=   9.9387E+01

== REACTIVE TRANSPORT ==========================================================
  0 2r: 6.70E-03 2x: 0.00E+00 2u: 0.00E+00 ir: 8.46E-04 iu: 0.00E+00 rsn:   0
  1 2r: 5.64E-05 2x: 9.90E+03 2u: 7.42E+00 ir: 2.01E-05 iu: 3.92E-01 rsn:   0
  2 2r: 2.24E-08 2x: 9.90E+03 2u: 3.35E-01 ir: 1.41E-08 iu: 5.95E-02 rsn:   0
  3 2r: 5.51E-12 2x: 9.90E+03 2u: 4.23E-03 ir: 3.39E-12 iu: 1.84E-03 rsn: rtol
 Step   1629 Time=  1.23000E+02 Dt=  1.00000E+00 [y] snes_conv_reason:    3
  newton =   3 [    4824] linear =    39 [     18281] cuts =  0 [   0]
  --> max chng: dcmx=   3.5404E-02  dc/dt=   1.1227E-09 [mol/s]

== AUXILIARY SALINITY ==========================================================

== RICHARDS FLOW ===============================================================
  0 2r: 3.30E-04 2x: 0.00E+00 2u: 0.00E+00 ir: 8.52E-05 iu: 0.00E+00 rsn:   0
  1 2r: 1.79E-06 2x: 3.19E+09 2u: 7.56E+03 ir: 1.09E-06 iu: 2.05E+02 rsn:   0
  0 2r: 3.30E-04 2x: 0.00E+00 2u: 0.00E+00 ir: 8.52E-05 iu: 0.00E+00 rsn:   0
  1 2r: 1.79E-06 2x: 3.19E+09 2u: 6.74E+03 ir: 1.09E-06 iu: 2.05E+02 rsn:   0
  0 2r: 3.30E-04 2x: 0.00E+00 2u: 0.00E+00 ir: 8.52E-05 iu: 0.00E+00 rsn:   0
  1 2r: 1.79E-06 2x: 3.19E+09 2u: 6.02E+03 ir: 1.09E-06 iu: 2.05E+02 rsn:   0
  0 2r: 3.30E-04 2x: 0.00E+00 2u: 0.00E+00 ir: 8.52E-05 iu: 0.00E+00 rsn:   0
  1 2r: 1.79E-06 2x: 3.19E+09 2u: 5.46E+03 ir: 1.09E-06 iu: 2.05E+02 rsn:   0
  0 2r: 3.30E-04 2x: 0.00E+00 2u: 0.00E+00 ir: 8.52E-05 iu: 0.00E+00 rsn:   0
  1 2r: 1.79E-06 2x: 3.19E+09 2u: 4.99E+03 ir: 1.09E-06 iu: 2.05E+02 rsn:   0
  2 2r: 1.17E-11 2x: 3.19E+09 2u: 1.02E+02 ir: 8.83E-12 iu: 2.11E+01 rsn: atol
 Step   1548 Time=  1.23062E+02 Dt=  6.25000E-02 [y] snes_conv_reason:    2
  newton =   6 [    2296] linear =  5488 [   1000825] cuts =  4 [ 385]
  --> max chng: dpmx=   2.0496E+02

== REACTIVE TRANSPORT ==========================================================
  0 2r: 6.65E-03 2x: 0.00E+00 2u: 0.00E+00 ir: 9.06E-04 iu: 0.00E+00 rsn:   0
  1 2r: 3.49E-06 2x: 9.90E+03 2u: 4.34E-01 ir: 1.31E-06 iu: 1.86E-02 rsn:   0
  2 2r: 6.18E-12 2x: 9.90E+03 2u: 1.11E-03 ir: 4.12E-12 iu: 1.70E-04 rsn: rtol
 Step   1630 Time=  1.23062E+02 Dt=  6.25000E-02 [y] snes_conv_reason:    3
  newton =   2 [    4826] linear =     8 [     18289] cuts =  0 [   0]
  --> max chng: dcmx=   2.4837E-03  dc/dt=   1.2601E-09 [mol/s]

== AUXILIARY SALINITY ==========================================================

== RICHARDS FLOW ===============================================================
  0 2r: 2.18E-05 2x: 0.00E+00 2u: 0.00E+00 ir: 5.77E-06 iu: 0.00E+00 rsn:   0
  1 2r: 2.84E-09 2x: 3.19E+09 2u: 1.34E+03 ir: 7.19E-10 iu: 3.22E+01 rsn: atol
 Step   1549 Time=  1.23125E+02 Dt=  6.25000E-02 [y] snes_conv_reason:    2
  newton =   1 [    2297] linear =   156 [   1000981] cuts =  0 [ 385]
  --> max chng: dpmx=   3.2195E+01

== REACTIVE TRANSPORT ==========================================================
  0 2r: 6.64E-03 2x: 0.00E+00 2u: 0.00E+00 ir: 9.09E-04 iu: 0.00E+00 rsn:   0
  1 2r: 3.48E-06 2x: 9.90E+03 2u: 4.34E-01 ir: 1.30E-06 iu: 1.85E-02 rsn:   0
  2 2r: 6.15E-12 2x: 9.90E+03 2u: 1.11E-03 ir: 4.05E-12 iu: 1.70E-04 rsn: rtol
 Step   1631 Time=  1.23125E+02 Dt=  6.25000E-02 [y] snes_conv_reason:    3
  newton =   2 [    4828] linear =     8 [     18297] cuts =  0 [   0]
  --> max chng: dcmx=   2.4418E-03  dc/dt=   1.2389E-09 [mol/s]

== AUXILIARY SALINITY ==========================================================

== RICHARDS FLOW ===============================================================
  0 2r: 2.18E-05 2x: 0.00E+00 2u: 0.00E+00 ir: 5.78E-06 iu: 0.00E+00 rsn:   0
  1 2r: 2.37E-09 2x: 3.19E+09 2u: 9.85E+02 ir: 7.18E-10 iu: 1.93E+01 rsn: atol
 Step   1550 Time=  1.23188E+02 Dt=  6.25000E-02 [y] snes_conv_reason:    2
  newton =   1 [    2298] linear =   237 [   1001218] cuts =  0 [ 385]
  --> max chng: dpmx=   1.9261E+01

== REACTIVE TRANSPORT ==========================================================
  0 2r: 6.64E-03 2x: 0.00E+00 2u: 0.00E+00 ir: 9.12E-04 iu: 0.00E+00 rsn:   0
  1 2r: 3.46E-06 2x: 9.90E+03 2u: 4.34E-01 ir: 1.30E-06 iu: 1.85E-02 rsn:   0
  2 2r: 6.10E-12 2x: 9.90E+03 2u: 1.11E-03 ir: 3.99E-12 iu: 1.70E-04 rsn: rtol
 Step   1632 Time=  1.23188E+02 Dt=  6.25000E-02 [y] snes_conv_reason:    3
  newton =   2 [    4830] linear =     8 [     18305] cuts =  0 [   0]
  --> max chng: dcmx=   2.4468E-03  dc/dt=   1.2414E-09 [mol/s]

== AUXILIARY SALINITY ==========================================================

== RICHARDS FLOW ===============================================================
  0 2r: 2.17E-05 2x: 0.00E+00 2u: 0.00E+00 ir: 5.78E-06 iu: 0.00E+00 rsn:   0
  1 2r: 2.22E-09 2x: 3.19E+09 2u: 8.38E+02 ir: 7.20E-10 iu: 1.46E+01 rsn: atol
 Step   1551 Time=  1.23250E+02 Dt=  6.25000E-02 [y] snes_conv_reason:    2
  newton =   1 [    2299] linear =   220 [   1001438] cuts =  0 [ 385]
  --> max chng: dpmx=   1.4612E+01

== REACTIVE TRANSPORT ==========================================================
  0 2r: 6.63E-03 2x: 0.00E+00 2u: 0.00E+00 ir: 9.15E-04 iu: 0.00E+00 rsn:   0
  1 2r: 3.45E-06 2x: 9.90E+03 2u: 4.33E-01 ir: 1.29E-06 iu: 1.85E-02 rsn:   0
  2 2r: 6.04E-12 2x: 9.90E+03 2u: 1.11E-03 ir: 3.93E-12 iu: 1.69E-04 rsn: rtol
 Step   1633 Time=  1.23250E+02 Dt=  6.25000E-02 [y] snes_conv_reason:    3
  newton =   2 [    4832] linear =     8 [     18313] cuts =  0 [   0]
  --> max chng: dcmx=   2.4545E-03  dc/dt=   1.2453E-09 [mol/s]

== AUXILIARY SALINITY ==========================================================

== RICHARDS FLOW ===============================================================
  0 2r: 2.17E-05 2x: 0.00E+00 2u: 0.00E+00 ir: 5.78E-06 iu: 0.00E+00 rsn:   0
  1 2r: 1.48E-09 2x: 3.19E+09 2u: 7.64E+02 ir: 7.23E-10 iu: 1.31E+01 rsn: atol
 Step   1552 Time=  1.23312E+02 Dt=  6.25000E-02 [y] snes_conv_reason:    2
  newton =   1 [    2300] linear =   334 [   1001772] cuts =  0 [ 385]
  --> max chng: dpmx=   1.3145E+01

== REACTIVE TRANSPORT ==========================================================
  0 2r: 6.63E-03 2x: 0.00E+00 2u: 0.00E+00 ir: 9.18E-04 iu: 0.00E+00 rsn:   0
  1 2r: 3.44E-06 2x: 9.90E+03 2u: 4.33E-01 ir: 1.28E-06 iu: 1.85E-02 rsn:   0
  2 2r: 5.97E-12 2x: 9.90E+03 2u: 1.11E-03 ir: 3.87E-12 iu: 1.69E-04 rsn: rtol
 Step   1634 Time=  1.23312E+02 Dt=  6.25000E-02 [y] snes_conv_reason:    3
  newton =   2 [    4834] linear =     8 [     18321] cuts =  0 [   0]
  --> max chng: dcmx=   2.4618E-03  dc/dt=   1.2490E-09 [mol/s]

== AUXILIARY SALINITY ==========================================================

== RICHARDS FLOW ===============================================================
  0 2r: 2.17E-05 2x: 0.00E+00 2u: 0.00E+00 ir: 5.77E-06 iu: 0.00E+00 rsn:   0
  1 2r: 1.54E-09 2x: 3.19E+09 2u: 7.09E+02 ir: 7.24E-10 iu: 1.25E+01 rsn: atol
 Step   1553 Time=  1.23375E+02 Dt=  6.25000E-02 [y] snes_conv_reason:    2
  newton =   1 [    2301] linear =   284 [   1002056] cuts =  0 [ 385]
  --> max chng: dpmx=   1.2522E+01

== REACTIVE TRANSPORT ==========================================================
  0 2r: 6.62E-03 2x: 0.00E+00 2u: 0.00E+00 ir: 9.20E-04 iu: 0.00E+00 rsn:   0
  1 2r: 3.43E-06 2x: 9.90E+03 2u: 4.33E-01 ir: 1.27E-06 iu: 1.85E-02 rsn:   0
  2 2r: 5.91E-12 2x: 9.90E+03 2u: 1.10E-03 ir: 3.81E-12 iu: 1.69E-04 rsn: rtol
 Step   1635 Time=  1.23375E+02 Dt=  6.25000E-02 [y] snes_conv_reason:    3
  newton =   2 [    4836] linear =     8 [     18329] cuts =  0 [   0]
  --> max chng: dcmx=   2.4689E-03  dc/dt=   1.2526E-09 [mol/s]

== AUXILIARY SALINITY ==========================================================

== RICHARDS FLOW ===============================================================
  0 2r: 2.16E-05 2x: 0.00E+00 2u: 0.00E+00 ir: 5.77E-06 iu: 0.00E+00 rsn:   0
  1 2r: 1.31E-09 2x: 3.19E+09 2u: 1.09E+03 ir: 7.24E-10 iu: 1.70E+01 rsn: atol
 Step   1554 Time=  1.23500E+02 Dt=  1.25000E-01 [y] snes_conv_reason:    2
  newton =   1 [    2302] linear =   462 [   1002518] cuts =  0 [ 385]
  --> max chng: dpmx=   1.7007E+01

== REACTIVE TRANSPORT ==========================================================
  0 2r: 6.62E-03 2x: 0.00E+00 2u: 0.00E+00 ir: 9.23E-04 iu: 0.00E+00 rsn:   0
  1 2r: 6.83E-06 2x: 9.90E+03 2u: 8.68E-01 ir: 2.53E-06 iu: 3.75E-02 rsn:   0
  2 2r: 4.33E-11 2x: 9.90E+03 2u: 4.45E-03 ir: 2.98E-11 iu: 6.87E-04 rsn: rtol
 Step   1636 Time=  1.23500E+02 Dt=  1.25000E-01 [y] snes_conv_reason:    3
  newton =   2 [    4838] linear =    11 [     18340] cuts =  0 [   0]
  --> max chng: dcmx=   4.9370E-03  dc/dt=   1.2524E-09 [mol/s]

== AUXILIARY SALINITY ==========================================================

== RICHARDS FLOW ===============================================================
  0 2r: 4.30E-05 2x: 0.00E+00 2u: 0.00E+00 ir: 1.14E-05 iu: 0.00E+00 rsn:   0
  1 2r: 4.61E-09 2x: 3.19E+09 2u: 1.73E+03 ir: 2.65E-09 iu: 2.52E+01 rsn: atol
 Step   1555 Time=  1.23750E+02 Dt=  2.50000E-01 [y] snes_conv_reason:    2
  newton =   1 [    2303] linear =   426 [   1002944] cuts =  0 [ 385]
  --> max chng: dpmx=   2.5229E+01

== REACTIVE TRANSPORT ==========================================================
  0 2r: 6.61E-03 2x: 0.00E+00 2u: 0.00E+00 ir: 9.28E-04 iu: 0.00E+00 rsn:   0
  1 2r: 1.35E-05 2x: 9.90E+03 2u: 1.75E+00 ir: 4.96E-06 iu: 7.73E-02 rsn:   0
  2 2r: 3.31E-10 2x: 9.90E+03 2u: 1.81E-02 ir: 2.21E-10 iu: 2.84E-03 rsn:   0
  3 2r: 1.20E-14 2x: 9.90E+03 2u: 9.93E-06 ir: 3.92E-15 iu: 4.03E-06 rsn: rtol
 Step   1637 Time=  1.23750E+02 Dt=  2.50000E-01 [y] snes_conv_reason:    3
  newton =   3 [    4841] linear =    21 [     18361] cuts =  0 [   0]
  --> max chng: dcmx=   9.8548E-03  dc/dt=   1.2500E-09 [mol/s]

== AUXILIARY SALINITY ==========================================================

== RICHARDS FLOW ===============================================================
  0 2r: 8.50E-05 2x: 0.00E+00 2u: 0.00E+00 ir: 2.23E-05 iu: 0.00E+00 rsn:   0
  1 2r: 6.17E-08 2x: 3.19E+09 2u: 2.06E+03 ir: 4.28E-08 iu: 5.10E+01 rsn: atol
 Step   1556 Time=  1.24000E+02 Dt=  2.50000E-01 [y] snes_conv_reason:    2
  newton =   1 [    2304] linear =   481 [   1003425] cuts =  0 [ 385]
  --> max chng: dpmx=   5.0983E+01

== REACTIVE TRANSPORT ==========================================================
  0 2r: 6.59E-03 2x: 0.00E+00 2u: 0.00E+00 ir: 9.36E-04 iu: 0.00E+00 rsn:   0
  1 2r: 1.34E-05 2x: 9.90E+03 2u: 1.74E+00 ir: 4.83E-06 iu: 7.69E-02 rsn:   0
  2 2r: 3.18E-10 2x: 9.90E+03 2u: 1.80E-02 ir: 2.07E-10 iu: 2.81E-03 rsn:   0
  3 2r: 1.21E-14 2x: 9.90E+03 2u: 9.89E-06 ir: 4.48E-15 iu: 3.96E-06 rsn: rtol
 Step   1638 Time=  1.24000E+02 Dt=  2.50000E-01 [y] snes_conv_reason:    3
  newton =   3 [    4844] linear =    21 [     18382] cuts =  0 [   0]
  --> max chng: dcmx=   9.9263E-03  dc/dt=   1.2590E-09 [mol/s]

== AUXILIARY SALINITY ==========================================================

== RICHARDS FLOW ===============================================================
  0 2r: 8.47E-05 2x: 0.00E+00 2u: 0.00E+00 ir: 2.21E-05 iu: 0.00E+00 rsn:   0
  1 2r: 9.97E-08 2x: 3.19E+09 2u: 2.73E+03 ir: 5.58E-08 iu: 5.13E+01 rsn: atol
 Step   1557 Time=  1.24500E+02 Dt=  5.00000E-01 [y] snes_conv_reason:    2
  newton =   1 [    2305] linear =   475 [   1003900] cuts =  0 [ 385]
  --> max chng: dpmx=   5.1295E+01

== REACTIVE TRANSPORT ==========================================================
  0 2r: 6.58E-03 2x: 0.00E+00 2u: 0.00E+00 ir: 9.42E-04 iu: 0.00E+00 rsn:   0
  1 2r: 2.66E-05 2x: 9.90E+03 2u: 3.53E+00 ir: 9.18E-06 iu: 1.65E-01 rsn:   0
  2 2r: 2.34E-09 2x: 9.90E+03 2u: 7.45E-02 ir: 1.38E-09 iu: 1.22E-02 rsn:   0
  3 2r: 1.28E-14 2x: 9.90E+03 2u: 1.82E-04 ir: 3.68E-15 iu: 7.45E-05 rsn: rtol
 Step   1639 Time=  1.24500E+02 Dt=  5.00000E-01 [y] snes_conv_reason:    3
  newton =   3 [    4847] linear =    33 [     18415] cuts =  0 [   0]
  --> max chng: dcmx=   1.9593E-02  dc/dt=   1.2426E-09 [mol/s]

== AUXILIARY SALINITY ==========================================================

== RICHARDS FLOW ===============================================================
  0 2r: 1.66E-04 2x: 0.00E+00 2u: 0.00E+00 ir: 4.43E-05 iu: 0.00E+00 rsn:   0
  1 2r: 2.66E-07 2x: 3.19E+09 2u: 3.78E+03 ir: 1.19E-07 iu: 1.04E+02 rsn: atol
 Step   1558 Time=  1.25000E+02 Dt=  5.00000E-01 [y] snes_conv_reason:    2
  newton =   1 [    2306] linear =   316 [   1004216] cuts =  0 [ 385]
  --> max chng: dpmx=   1.0448E+02

== REACTIVE TRANSPORT ==========================================================
  0 2r: 6.55E-03 2x: 0.00E+00 2u: 0.00E+00 ir: 9.50E-04 iu: 0.00E+00 rsn:   0
  1 2r: 2.62E-05 2x: 9.90E+03 2u: 3.51E+00 ir: 8.61E-06 iu: 1.64E-01 rsn:   0
  2 2r: 2.19E-09 2x: 9.90E+03 2u: 7.38E-02 ir: 1.17E-09 iu: 1.21E-02 rsn:   0
  3 2r: 6.64E-15 2x: 9.90E+03 2u: 1.78E-04 ir: 1.09E-15 iu: 7.33E-05 rsn: rtol
 Step   1640 Time=  1.25000E+02 Dt=  5.00000E-01 [y] snes_conv_reason:    3
  newton =   3 [    4850] linear =    34 [     18449] cuts =  0 [   0]
  --> max chng: dcmx=   1.9633E-02  dc/dt=   1.2451E-09 [mol/s]

 Wall Clock Time:  1.1130E+04 [sec]   1.8549E+02 [min]   3.0916E+00 [hr]
